513
Lattice="16.869 0.0 0.0 -8.434499999999996 14.608982536439697 0.0 0.0 0.0 71.47800000000001" Properties=species:S:1:pos:R:3 pbc="T T T"
O        3.41000032      -0.34000003      36.88799985
H        2.49000025      -0.18000001      37.18799909
H        3.25999999      -0.88000005      36.04799970
O        8.24000072      -1.14999998      31.83800061
H        9.22000027      -1.06000006      31.67799981
H        8.12000084      -2.13000011      32.01799996
O        4.01000023      14.25000095      33.98799928
H        4.17000008      13.46000099      34.55799993
H        3.25000024      14.78000069      34.38799985
O       -0.53000003      19.79000092      38.85800107
H       -1.43000007      20.15999985      38.83800061
H        0.04000000      20.53000259      39.31800016
O       -2.51999998      18.00000000      34.25799974
H       -2.83000016      17.49000168      33.50799974
H        6.73000050       3.91000032      33.87799962
O       18.17000008      26.09000206      33.25799974
H       17.77000046      25.22999954      33.66799958
H       17.42000198      26.75000191      33.45799955
O      -11.89000034      17.62000084      33.91799958
H      -11.61000061      16.95000076      33.22800000
H      -11.29000092      18.43000031      33.74800046
O        1.19000006      -9.65000057      36.54799970
H        0.58000004      -9.78000069      35.79800065
H       17.40999985      -9.48000050      37.32800038
O       14.23000145      -2.51999998      31.79799970
H        6.55000019      11.73000145      31.26799996
H       14.68000031      -1.71000004      32.15799935
O       10.02000046       0.57000005      29.75799974
H       10.22999954      -0.31000000      30.16799958
H       10.05000019       0.34000003      28.79799922
O       -3.40000010      11.19000053      33.63799985
H       -3.58000016      10.22000122      33.77800019
H       -3.55000019      11.46000004      32.68799909
O        8.50000000      -0.05000000      39.96799977
H       -8.72000027       0.75000000      39.41800054
H        9.19999981      -0.44000003      39.25800069
O        7.07999992       7.17000008      33.13799985
H        7.07000017       7.43000031      32.15799935
H        7.21000004       7.93000031      33.71799977
O       -2.75000000      -5.64000034      29.79799970
H       -3.52000022      -6.24000025      29.90800031
H       -2.61000013      -5.62000036      28.78799947
O       -4.12000036       8.49000072      34.26800092
H       -4.35000038       7.80000019      33.60799916
H       -4.64000034       8.57999992      35.08799966
O       11.78000069       8.55000019      30.39800008
H       11.19000053       9.31000042      30.49799951
H       12.51000023       8.97000027      29.82799943
O      -15.98000050       5.56000042      37.70799955
H      -16.26000023       5.39000034      36.72800000
H      -15.07000065       5.88000011      37.53799947
O       -2.40000010      13.99000072      30.22799905
H       -2.19000006      14.19000053      29.26799996
H       -1.50000000      13.92000103      30.69800027
O       -7.39000034       7.44000006      39.72800000
H       -8.07999992       7.97000027      40.14800008
H       -6.78000021       7.06000042      40.38799985
O      -16.40000153       9.18000031      38.47800000
H      -24.33000183      24.23999977      39.25800069
H      -17.12000084       9.82999992      38.29799970
O       12.85000038      -7.85000038      33.78799947
H       12.62000084      -7.99000025      32.86799939
H        5.40000010       6.98000002      33.43800004
O        7.81000042       7.28000069      30.39800008
H        7.28000069       6.47000027      30.19799932
H        7.24000025       8.06000042      30.16799958
O       -9.84000015      19.75000191      32.49800046
H        7.10000038      20.51000214      33.15800031
H       -8.94000053      19.43000031      32.49800046
O        5.45000029       1.69000018      32.18800004
H        4.85000038       0.97000003      32.44800027
H        6.39000034       1.41000009      32.29799970
O       -0.14000000      16.47000122      32.62799962
H        0.16000001      16.11000061      31.78800042
H       -0.37000000      17.36000061      32.37800058
O        0.61000001       0.51000005      33.38799985
H        1.58000004       0.55000001      33.38799985
H        0.25999999       1.16000009      34.09799989
O       -6.07000065      23.54999924      36.64800008
H       -5.38000059      24.12000275      37.00799974
H       -6.92000008      23.57000160      37.19800122
O       -4.64000034       6.62000084      32.41799958
H       -5.50000000       6.57000017      31.99799951
H       -4.13000011       6.98000002      31.66799958
O       16.40000153      -3.05000019      30.06800016
H        7.80000019      12.36000061      29.60799916
H       16.20000076      -3.76999998      29.41799958
O        1.05000007       0.15000001      38.13799985
H        0.37000000      -0.41000003      37.74800046
H        0.93000001       1.07000005      37.85800107
O        7.96000051      10.42000008      36.82799943
H        7.47000027       9.55000019      36.94800027
H        8.92000008      10.29000092      37.21799977
O       -5.43000031      19.08000183      29.42799981
H       -4.80000019      18.31000137      29.51799996
H       10.52000046      18.71000099      29.56799920
O       -0.94000006      -1.60000014      36.97800000
H       -0.75000000      -2.55000019      37.00799974
H       -1.86000001      -1.53000009      36.73800023
O        0.64000005      -0.46000004      29.32799943
H        1.62000000      -0.10000001      29.41799958
H        0.22000001       0.18000001      29.90800031
O        6.65999985      -1.98000014      39.92800077
H        5.77000046      -1.68000007      39.52800115
H        7.21000004      -1.16000009      39.94799932
O       -5.36000013      14.71000099      30.01799996
H       -4.75000000      14.04000092      29.62799962
H       -4.82999992      15.59000015      29.83799966
O      -11.58000088       5.94000053      39.16800054
H      -12.05000019       5.09000015      39.39800008
H      -11.43000031       6.43000031      39.93799909
O       -9.23000050      -9.93000031      35.63799985
H       -9.68000031      -9.27000046      35.07800038
H       -1.31000018       4.61999989      36.47800000
O        4.54000044      10.17000103      37.77799924
H        4.84000015      10.32999992      38.70799955
H        5.33000040       9.63000107      37.46799977
O       -6.68000031      -1.43000007      38.38799985
H      -22.67000198      -1.06000006      38.06800016
H       -7.15000057      -1.50000000      37.51799901
O        4.19000053     -15.15999985      38.08800061
H       -4.14000034       0.14000000      37.43799909
H        4.47000027     -14.66000080      38.85800107
O       -1.83000016      -6.30000067      37.50800069
H       -1.65000010      -6.30000067      38.47800000
H       -1.92000008      -7.22000074      37.18799909
O        6.32000017       5.21000004      30.03799947
H        7.06000042       4.61000013      29.98799928
H        5.93000031       5.16000032      29.06799920
O       -6.38000011      11.00000000      30.81799920
H       -7.01000023      11.26000023      30.08799966
H       -6.62000084      11.34000015      31.70799955
O       10.06000042      -2.49000025      29.28799947
H       10.97000027      -2.48000002      29.72800000
H        9.37000084      -2.98000002      29.87799962
O       -2.96000004       9.69000053      29.21799977
H       -2.50000000       8.92000008      29.78799947
H       -3.11000013      10.64000034      29.61799939
O       -2.53999996       3.95000005      37.96799977
H       -2.27000022       3.66000032      38.89800008
H       -3.34000015       4.56000042      37.99800046
O       11.72000027      18.82000160      35.44799932
H       11.77000046      19.71000099      35.67799981
H       12.49000072      18.81000137      34.77800019
O       10.48999977       7.57999992      36.02800019
H        9.89000034       6.91000032      36.45800050
H       10.48999977       8.33000088      36.71800073
O       15.42000008       7.10000038      34.26800092
H       15.95000076       7.81000042      33.81800016
H       14.56999969       7.61000061      34.23800023
O        3.51000023       6.53000069      37.14800008
H        4.28999996       6.68000031      37.68800099
H        3.15000033       7.49000025      36.89800008
O       -0.56000000       2.00999999      35.18799909
H       -0.58000004       3.02000022      35.22800000
H       -1.41000009       1.67000008      35.39800008
O       11.67000008      14.55000019      32.77800019
H       11.37000084      14.19000053      31.87799962
H       11.58000088      13.79000092      33.53799947
O       -4.50000000      16.67000008      37.00799974
H       -4.86000013      17.12000084      36.17800077
H       -4.51000023      15.68000031      36.95799955
O       -4.93000031       5.86000013      38.13799985
H       -5.65000010       6.16000080      37.54799970
H       -5.45000029       5.46000004      38.93800099
O       -8.53999996       2.17000008      38.63799985
H       -9.19000053       2.60000014      38.01800092
H       -7.67000008       2.45000005      38.23800023
O       -0.28000000      10.78999996      30.38799985
H        0.32999998      10.01000023      30.46799977
H       -0.93000001      10.59000015      29.65799935
O       -1.95000005       8.07999992      30.84799989
H       -1.72000003       8.36999989      31.76799901
H       -1.34000003       7.30000019      30.67799981
O        8.14000034      15.96000099      31.12799962
H        8.61000061      15.84000111      32.01799996
H        7.20000029      15.89000130      31.46799977
O       13.12000084      11.83000088      30.44799932
H       12.16000080      11.65000057      30.47800000
H       13.36999989      12.83000088      30.37799962
O       16.87000084       6.53000069      29.96799977
H       16.80000114       5.59999990      30.28799947
H       16.66000175       6.46000004      29.00799974
O       -8.75000095      -7.57000017      39.70799955
H       -8.53000069      -8.30000019      39.04799970
H       -8.31000042      -6.75000000      39.34800084
O      -11.25000000      14.19000053      29.26799996
H      -11.86000061      14.91000080      29.53799947
H      -11.80000114      13.31999969      29.44800027
O       17.10000038      23.70000076      34.42799981
H       17.81000137      23.20000076      34.87800058
H       16.75000000      24.31000137      35.12799962
O       10.86999989       4.32000017      30.20799955
H       10.50000095       5.15000057      29.75799974
H       11.83000088       4.28000021      30.03799947
O      -14.70000076       8.70000076      33.96799977
H      -14.63000107       8.86999989      34.91799958
H       -5.57000065      -6.54000044      33.69800027
O        1.96000004      -4.92000008      38.05799993
H        1.82000017      -5.66000032      38.68799909
H        2.94000006      -4.69000006      38.08800061
O       -2.91000009      -4.82999992      33.93799909
H       -3.72000003      -5.29000044      33.60799916
H       -2.71000028      -4.26999998      33.09799893
O      -17.47000122      -1.51000011      34.05799993
H      -17.73999977      -1.35000002      34.93799909
H      -17.01000023      -0.63000000      33.75799878
O        1.51000011       8.75000095      30.15799935
H        0.87000006       8.02000046      30.11799939
H       18.77000046       8.70000076      29.21799977
O       -3.23000002       7.55000067      39.52800115
H       -3.70000005       6.97000027      38.87799962
H       -2.35000014       7.20000029      39.65800031
O        4.61999989       2.21000004      29.79799970
H        5.42000055       2.09000015      29.26799996
H        5.00000000       2.21000004      30.80799993
O       12.60000134      -2.60000014      35.61800035
H       12.97000027      -3.31000042      35.10800012
H       12.71000004      -2.95000029      36.52800019
O       11.52000046      12.81000042      34.75799974
H       12.26000023      12.29000092      34.33800061
H       10.69000053      12.26000023      34.44799932
O       13.99000072       1.11000013      32.33799966
H       13.60000038       0.53000003      33.12799962
H       13.30000019       1.11000013      31.69799932
O       11.05000019      -1.34000003      31.88799985
H       11.50000095      -0.93000001      32.68799909
H       11.38000011      -2.25000000      31.90800031
O        1.35000002       4.28000021      33.37799962
H        1.92000008       4.11000013      34.17799981
H        2.00000000       4.78000021      32.86799939
O        9.97000027       0.77000010      34.86799939
H        9.56000042       1.31000018      34.18800004
H       10.19000053       1.41000009      35.54799970
O        6.95000076      -3.62000012      37.92800077
H        7.26000023      -3.20000029      37.10799916
H        6.94000006      -2.93000007      38.64800008
O       -8.72000027       4.84000015      33.95800050
H       -7.82000065       4.78000021      33.50799974
H       -9.04000092       5.73000002      33.55799993
O        0.28000000       3.63000011      29.82799943
H        0.09000000       3.39000010      28.88799937
H        0.10000001       2.76999998      30.28799947
O        4.84000015      16.73000145      36.27800019
H        4.81000042      17.07000160      35.30799993
H        5.36999989      17.30000114      36.84799893
O       10.03000069       6.87000036      29.12799962
H       10.78999996       7.46000051      29.37799962
H        9.25000095       7.27000046      29.53799947
O        3.95000005      16.10000229      30.33799966
H        2.98000002      16.01000023      30.28799947
H        4.26999998      16.93000031      29.92799981
O       16.69000053       8.88000107      32.92799981
H       16.53000069       9.80000019      33.29800065
H       17.63000107       8.67000008      33.16800054
O       -0.54000002      10.98000050      34.33800061
H       -0.04000000      11.84000015      34.45799955
H       -1.39999998      11.34000015      34.02800019
O      -15.81000137     -16.43000031      35.29799970
H      -15.83000088     -15.45000076      35.13799985
H      -14.93000031     -16.84000206      35.26799901
O        2.07000017      17.11000061      36.83800061
H        3.02999997      17.07000160      36.63799985
H        1.83000016      18.01000214      36.57800038
O        6.14000034       3.42000008      37.11799939
H        6.22000027       3.16000009      36.21799977
H        5.27999973       2.96000004      37.31800016
O       -6.41000032       4.03000021      32.95799955
H       -6.27000046       3.84000015      31.95799955
H       -5.49000025       4.12000036      33.20799955
O        4.50000000      -4.57000017      38.76799901
H        4.85000038      -5.42000055      39.14800008
H        5.15000057      -4.21000051      38.09800084
O        6.19999981       6.05000019      36.33799966
H        6.03000069       5.17000008      36.63799985
H        5.93000031       6.00000000      35.38799985
O        4.36999989      -0.96000004      39.30799993
H        4.82999992      -0.11000001      39.48800023
H        4.14000034      -0.97000003      38.36799939
O        3.61000037       6.65999985      31.00799974
H        2.84000015       7.24000025      30.89800008
H        3.45000029       5.85000038      30.43800004
O      -13.84000015      10.37000084      31.96799977
H        2.63000011       9.82999992      31.29799970
H        2.43000007      10.20000076      32.68799909
O        1.88000011       3.02000022      38.49800046
H        1.37000012       3.88000011      38.35799916
H        2.48000002       2.94000006      37.78800138
O       -3.09999990       3.82000017      29.98799928
H       -2.73000002       4.46000004      30.63799985
H       -2.73000002       4.07000017      29.07800038
O        8.35000038       3.24000001      30.03799947
H        9.36000061       3.18000031      29.77800019
H        8.01000023       2.67000008      29.33799966
O      -12.79000092      11.85000038      29.74799951
H      -12.47000122      11.70000076      30.68799909
H        4.05000019      10.91000080      29.40800031
Pt       1.77999997       0.85000002      15.18000031
Pt       4.52000046       0.83000004      15.34000016
Pt       7.28000069       0.76000005      15.24000168
Pt      10.11000061       0.86000001      15.15999985
Pt      12.89000034       0.83000004      15.22999955
Pt      15.68000031       0.88000005      15.27000046
Pt       3.09999990       3.25000024      15.22000122
Pt       5.88000011       3.29000020      15.25000000
Pt       8.67000008       3.35000014      15.15999985
Pt      11.55000114       3.21000004      15.25999832
Pt      14.33000088       3.25000024      15.38999939
Pt       0.23000002       3.31000042      15.25999832
Pt       4.44000053       5.69000006      15.08000183
Pt       7.28000069       5.82999992      15.21000290
Pt      10.13000011       5.71000051      15.11999893
Pt      12.95000076       5.61000061      15.38000107
Pt      -1.05000007       5.71000051      15.37000275
Pt       1.80000007       5.67000008      15.00000000
Pt       5.98000050       8.17000008      15.11999893
Pt       8.73999977       8.12000084      15.28000260
Pt      11.54000092       8.16000080      15.25000000
Pt      -2.55000019       8.11000061      15.32999802
Pt       0.22000001       8.07999992      15.25999832
Pt       3.11000013       8.07000065      15.22000122
Pt       7.29000044      10.55999947      15.25000000
Pt      10.05000019      10.52000046      15.09999848
Pt      -4.03000021      10.53000069      15.14000321
Pt      -1.16000009      10.51000023      15.17000199
Pt       1.60000014      10.57000065      15.15000153
Pt       4.36999989      10.46000004      15.28000260
Pt       8.53000069      12.89000034      15.22999955
Pt      -5.46000004      12.84000015      15.22999955
Pt      -2.65000010      12.94000053      15.25999832
Pt       0.20000002      13.03000069      15.31000138
Pt       3.04000020      12.88000107      15.24000168
Pt       5.86000013      12.85000038      15.15000153
Pt       0.20000002       1.56000006      17.52000046
Pt       2.93000007       1.66000009      17.59000016
Pt       5.95000029       1.63000000      17.54000092
Pt       8.64000034       1.38000011      17.45999909
Pt      11.43000031       1.48000002      17.52999878
Pt      14.32000065       1.69000018      17.61000061
Pt       1.63000000       4.07000017      17.52000046
Pt       4.49000025       4.11000013      17.56000138
Pt       7.35000038       4.08000040      17.59999848
Pt      10.11000061       4.00000000      17.63000107
Pt      12.90000057       4.14000034      17.71000290
Pt      -1.06000006       4.06000042      17.65999985
Pt       2.97000027       6.50000048      17.57000351
Pt       5.73000002       6.50000048      17.56000138
Pt       8.68000031       6.40000057      17.50000000
Pt      11.51000023       6.41000032      17.52999878
Pt      -2.56000018       6.48000002      17.61000061
Pt       0.32000002       6.49000072      17.57000351
Pt       4.50000000       8.92000008      17.64000321
Pt       7.19000053       8.90000057      17.52000046
Pt      10.05000019       8.81000042      17.54000092
Pt      -4.01999998       8.81000042      17.47000122
Pt      -1.12000000       8.89000034      17.58000183
Pt       1.69000018       8.90999985      17.65999985
Pt       5.85000038      11.40000153      17.65999985
Pt       8.67000008      11.34000015      17.57000351
Pt      -5.39000034      11.22000122      17.54999924
Pt      -2.53999996      11.22000122      17.65000153
Pt       0.25000000      11.16000080      17.50000000
Pt       2.97000027      11.39000034      17.54000092
Pt       7.18000031      13.75000095      17.52999878
Pt      -6.77000046      13.76000023      17.49000168
Pt      -3.94000030      13.71000099      17.52000046
Pt      -1.21000004      13.75000095      17.59000016
Pt       1.59000015      13.67000103      17.72999955
Pt       4.45000029      13.87000084      17.58000183
Pt      -8.28000069      14.53000069      19.93000031
Pt      -5.50000000      14.53000069      19.75000000
Pt      -2.61000013      14.48000050      19.89000321
Pt       0.14000000      14.40000057      19.90999985
Pt       2.91000009      14.52000046      19.95000077
Pt       5.77000046      14.51000118      20.00000000
Pt       1.58000004       2.42000008      19.85000229
Pt       4.50000000       2.45000005      19.93999863
Pt       7.26000023       2.33000016      19.90999985
Pt      10.05000019       2.25000000      19.92000199
Pt      12.93000126       2.33000016      19.96000290
Pt      -1.22000003       2.29999995      19.97999955
Pt       3.09999990       4.77000046      19.83000183
Pt       5.79000044       4.79000044      19.89000321
Pt       8.64000034       4.78000021      19.93999863
Pt      11.38000011       4.73000002      19.95000077
Pt      -2.63999987       4.79000044      19.93000031
Pt       0.29000002       4.70000029      19.90999985
Pt       4.41000032       7.28000069      19.92000199
Pt       7.19000053       7.17000008      19.92000199
Pt       9.95000076       7.26000023      19.83000183
Pt      -4.19000053       7.22000074      19.86999893
Pt      -1.22000003       7.11999989      19.93999863
Pt       1.65000010       7.23000050      19.90000153
Pt       5.80000019       9.70000076      19.90999985
Pt       8.61000061       9.60000038      19.77000046
Pt      -5.36999989       9.67000103      19.79999924
Pt      -2.53999996       9.53000069      19.93000031
Pt       0.23000002       9.63000107      19.90999985
Pt       3.01000023       9.70000076      19.99000168
Pt       7.21000004      12.11999989      19.90000153
Pt      -6.96000051      12.11999989      19.78000260
Pt      -4.00000000      12.06999969      19.88000107
Pt      -1.24000001      11.97000027      19.90999985
Pt       1.57000005      12.10000038      19.95000077
Pt       4.34000015      12.19000053      19.93000031
Pt       1.58000004       0.72000003      22.13799937
Pt       4.43000031       0.61000001      22.03799923
Pt       7.16000032       0.72000003      22.16799934
Pt       9.92000008       0.72000003      22.28799923
Pt      12.76000023       0.62000000      22.35799928
Pt      15.53000069       0.67000002      22.24799927
Pt       3.04000020       3.08000040      22.15799935
Pt       5.73999977       3.18000031      22.19799932
Pt       8.53000069       3.15000033      22.17799922
Pt      11.35000134       3.06000018      22.24799927
Pt      14.23999977       3.07000017      22.25799926
Pt       0.13000000       3.04000020      22.24799927
Pt       4.39000034       5.59999990      22.21799930
Pt       7.19000053       5.63000011      22.16799934
Pt       9.89000034       5.65000010      22.31799932
Pt      12.72999954       5.53999996      22.14799924
Pt      -1.25000000       5.50000000      22.17799922
Pt       1.65000010       5.42000055      22.17799922
Pt       5.79000044       8.11000061      22.19799932
Pt       8.59000015       8.07000065      22.18799933
Pt      11.40999985       8.01000023      22.14799924
Pt      -2.69000030       7.86000013      22.16799934
Pt       0.19000001       7.92000055      22.13799937
Pt       2.99000025       7.99000025      22.24799927
Pt       7.23000050      10.53999996      22.14799924
Pt       9.97000027      10.53000069      22.15799935
Pt      -4.01000023      10.45000076      22.11799927
Pt      -1.24000001      10.34000015      22.27799924
Pt       1.46000016      10.47000027      22.27799924
Pt       4.34000015      10.44000053      22.21799930
Pt       8.60000038      12.90999985      22.20799931
Pt      -5.45000029      12.81000042      21.94799932
Pt      -2.65000010      12.79000092      22.18799933
Pt       0.03000000      12.80000114      22.21799930
Pt       2.89000010      12.85000038      22.34799917
Pt       5.68000031      12.89000034      22.26799925
Pt       0.11000001       1.47000003      24.53799947
Pt       2.92000031       1.50000000      24.44799932
Pt       5.73999977       1.53000009      24.43799956
Pt       8.48000050       1.50000000      24.57799943
Pt      11.30000019       1.47000003      24.55799945
Pt      14.13000107       1.50000000      24.73799952
Pt       1.58000004       3.80000019      24.54799946
Pt       4.40000010       3.87000036      24.49799927
Pt       7.10000038       3.97000027      24.51799925
Pt       9.93000031       3.95000005      24.53799947
Pt      12.72000122       3.88000011      24.63799961
Pt      -1.31000018       3.90000010      24.54799946
Pt       2.86999989       6.23000050      24.56799920
Pt       5.71000051       6.43000031      24.52799948
Pt       8.53000069       6.40000057      24.54799946
Pt      11.24000072       6.41000032      24.61799939
Pt      -2.76999998       6.25000000      24.41799934
Pt       0.03000000       6.21000051      24.56799920
Pt       4.30000019       8.79000092      24.53799947
Pt       7.22000074       8.81000042      24.48799928
Pt       9.97000027       8.80000019      24.45799955
Pt      -4.08000040       8.82999992      24.39799936
Pt      -1.36000013       8.65000057      24.45799955
Pt       1.51000011       8.63000011      24.54799946
Pt       5.82000017      11.26000023      24.50799950
Pt       8.59000015      11.24000072      24.46799930
Pt      -5.47000027      11.26000023      24.36799939
Pt      -2.69000030      11.14000130      24.62799938
Pt       0.08000001      11.18000031      24.60799940
Pt       2.90000010      11.13000011      24.53799947
Pt       7.16000032      13.71000099      24.64799936
Pt      -6.93000031      13.67000103      24.47799953
Pt      -4.15000010      13.72000122      24.38799937
Pt      -1.41000009      13.68000031      24.50799950
Pt       1.44000006      13.66000080      24.52799948
Pt       4.26000023      13.59000111      24.67799934
Pt      -8.23000050      14.41000080      27.03799947
Pt      -5.43000031      14.54000092      26.66799958
Pt      -2.79000020      14.44000149      26.81799968
Pt      -0.01000000      14.48000050      26.89799913
Pt       2.91000009      14.44000149      26.89799913
Pt       5.80000019      14.47000027      27.06799968
Pt       1.56000006       2.28000021      27.03799947
Pt       4.26999998       2.29999995      26.89799913
Pt       7.04000044       2.21000004      27.06799968
Pt       9.91000080       2.22000027      26.79799970
Pt      12.76000023       2.30999994      27.01799949
Pt      -1.23000002       2.30999994      27.01799949
Pt       2.97000027       4.73000002      26.98799928
Pt       5.69000006       4.80000019      26.81799968
Pt       8.43000031       4.63000011      26.86799987
Pt      11.37000084       4.65000057      27.00799974
Pt      -2.68000007       4.82000017      26.89799913
Pt       0.21000001       4.66000032      26.91799958
Pt       4.36000013       7.10000038      26.78799947
Pt       7.22000074       7.14000034      26.90799935
Pt       9.98000050       7.11999989      26.92799981
Pt      -4.15000010       7.07000017      26.71799930
Pt      -1.34000003       7.25000000      26.83799966
Pt       1.51000011       7.25000000      26.90799935
Pt       5.77000046       9.71000099      26.66799958
Pt       8.59000015       9.54000092      26.87799962
Pt      -5.51000023       9.68000031      26.74799951
Pt      -2.74000025       9.63000107      26.83799966
Pt       0.20000002       9.61000061      26.83799966
Pt       2.93000007       9.59000015      26.82799943
Pt       7.19000053      12.08000088      26.80799945
Pt      -6.92000008      12.11000061      26.89799913
Pt      -4.15000010      12.11999989      26.93799956
Pt      -1.28000009      12.09000111      26.86799987
Pt       1.51000011      12.11999989      27.03799947
Pt       4.36000013      12.05000019      26.91799958
