216
Lattice="16.868951504020636 0.0 0.0 -8.43447575201031 14.60894053768958 0.0 0.0 0.0 51.47786768905706" Properties=species:S:1:pos:R:3 pbc="T T T"
Pt       2.21026553       0.34946972      20.05993331
Pt       5.09026588       0.27946978      19.92993224
Pt       7.87026609       0.24946975      19.86993469
Pt      10.60026563       0.49946975      19.83993591
Pt      13.47026552       0.45946985      20.03993667
Pt      16.19026674       0.32946980      20.03993667
Pt       3.70026577       2.80946987      19.80993713
Pt       6.36026586       2.64946979      19.90993560
Pt       9.17026628       2.76947015      19.98993362
Pt      12.11026586       2.86947006      19.88993514
Pt      14.88026632       2.80946987      19.87993682
Pt       0.82026545       2.78946965      19.86993469
Pt       5.09026588       5.28946965      19.77993453
Pt       7.73026575       5.12947028      19.85993255
Pt      10.68026555       5.19946998      19.71993316
Pt      13.50026620       5.30947011      19.88993514
Pt      -0.64973461       5.21946996      20.05993331
Pt       2.39026559       5.24947017      19.68993438
Pt       6.47026552       7.61947006      19.85993255
Pt       9.23026575       7.61947006      19.80993713
Pt      12.11026586       7.67947000      19.98993362
Pt      -1.94973456       7.65947002      19.99993194
Pt       0.84026546       7.53947013      19.92993224
Pt       3.63026584       7.64947026      19.69993270
Pt       7.71026576      10.09946960      19.93993438
Pt      10.66026605      10.05947059      19.77993453
Pt      -3.35973488      10.17946952      19.72993530
Pt      -0.44973456      10.10946983      19.81993545
Pt       2.30026556      10.17946952      19.92993224
Pt       4.96026576      10.05947059      19.92993224
Pt       9.26026643      12.45947021      19.84993423
Pt      -5.01973521      12.62947028      19.93993438
Pt      -1.88973462      12.37947028      19.89993347
Pt       0.89026547      12.49947017      19.90993560
Pt       3.68026555      12.63947051      19.86993469
Pt       6.33026565      12.54947036      19.94993652
Pt       0.69026544       1.22946995      22.31993545
Pt       3.52026571       1.24946981      22.29993499
Pt       6.36026586       1.19946986      22.29993499
Pt       9.24026597       1.21946984      22.34993423
Pt      12.06026567       1.19946986      22.21993316
Pt      14.83026613       1.05946987      22.27993453
Pt       2.26026548       3.57947009      22.11993469
Pt       5.15026534       3.76947015      22.15993560
Pt       7.92026580       3.72946971      22.37993682
Pt      10.58026613       3.59947007      22.13993514
Pt      13.41026605       3.63946980      22.28993285
Pt      -0.64973461       3.61946982      22.21993316
Pt       3.55026544       6.06946986      22.15993560
Pt       6.33026565       6.10946983      22.36993469
Pt       9.22026552       6.09947007      22.10993636
Pt      12.02026666       6.01946967      22.23993743
Pt      -2.03973471       6.06946986      22.29993499
Pt       0.82026545       5.92947000      22.23993743
Pt       4.99026597       8.59946960      22.28993285
Pt       7.77026618       8.51946967      22.26993240
Pt      10.59026636       8.50947040      22.04993499
Pt      -3.36973464       8.49947017      22.27993453
Pt      -0.55973469       8.42946952      22.37993682
Pt       2.22026552       8.48946994      22.15993560
Pt       6.41026557      11.01946967      22.29993499
Pt       9.22026552      10.94946998      22.12993301
Pt      -4.62973487      10.92947047      22.06993545
Pt      -1.93973481      10.80947059      22.17993606
Pt       0.71026545      10.83946937      22.26993240
Pt       3.53026546      11.06946986      22.19993270
Pt       7.73026575      13.29947036      22.28993285
Pt      -6.26973521      13.40947097      22.25993408
Pt      -3.41973483      13.35947078      22.15993560
Pt      -0.63973462      13.35947078      22.32993377
Pt       2.08026553      13.41947025      22.28993285
Pt       4.99026597      13.42947047      22.34993423
Pt      -7.72973525      14.29947036      24.54993499
Pt      -4.85973441      14.18946975      24.42993606
Pt      -2.00973474      14.17947143      24.53993285
Pt       0.68026544      14.12947124      24.61993469
Pt       3.54026569      14.16947025      24.56993545
Pt       6.37026561      14.22947067      24.68993820
Pt       2.11026550       2.11946982      24.48993743
Pt       5.03026546       2.11946982      24.52993453
Pt       7.79026569       2.06946986      24.60993255
Pt      10.54026616       1.95946997      24.60993255
Pt      13.52026571       2.03946989      24.61993469
Pt      -0.71973454       2.00946992      24.57993377
Pt       3.64026559       4.57947009      24.47993530
Pt       6.38026536       4.52946990      24.59993423
Pt       9.26026643       4.47947019      24.63993514
Pt      11.95026697       4.40947002      24.61993469
Pt      -2.10973465       4.42947000      24.53993285
Pt       0.76026545       4.43946975      24.53993285
Pt       4.96026576       6.91947025      24.52993453
Pt       7.71026576       6.85946983      24.50993408
Pt      10.54026616       6.99946969      24.42993606
Pt      -3.63973509       6.82947009      24.51993621
Pt      -0.58973466       6.78947013      24.61993469
Pt       2.15026558       6.83947032      24.46993316
Pt       6.37026561       9.41947025      24.55993713
Pt       9.19026578       9.32947009      24.43993438
Pt      -4.83973490       9.34946960      24.41993392
Pt      -2.02973472       9.29947036      24.47993530
Pt       0.82026545       9.27946990      24.54993499
Pt       3.59026564       9.33947032      24.60993255
Pt       7.72026552      11.83947032      24.65993560
Pt      -6.37973487      11.78947013      24.39993347
Pt      -3.52973496      11.68946975      24.47993530
Pt      -0.68973457      11.65947002      24.58993591
Pt       2.13026548      11.74947112      24.62993682
Pt       4.96026576      11.82947105      24.51993621
Pt       2.12026549       0.42946976      26.76793321
Pt       4.98026575       0.29946976      26.73793312
Pt       7.75026573       0.34946972      26.85793325
Pt      10.51026643       0.36946982      26.89793321
Pt      13.35026658       0.41946983      26.96793314
Pt      16.16026605       0.35946977      26.95793315
Pt       3.60026563       2.79946988      26.83793326
Pt       6.25026620       2.86947006      26.93793317
Pt       9.06026567       2.84946984      26.93793317
Pt      11.85026563       2.76947015      26.88793322
Pt      14.74026597       2.75946992      26.93793317
Pt       0.76026545       2.75946992      26.95793315
Pt       4.92026533       5.30947011      26.82793327
Pt       7.67026533       5.41946977      26.84793314
Pt      10.52026571       5.29947036      26.92793318
Pt      13.31026567       5.15947002      26.84793314
Pt      -0.67973458       5.16947025      26.87793323
Pt       2.22026552       5.19946998      26.83793326
Pt       6.43026555       7.77946990      26.89793321
Pt       9.16026605       7.78947013      26.80793329
Pt      11.97026647       7.71947044      26.87793323
Pt      -2.10973465       7.63947004      26.88793322
Pt       0.72026546       7.63947004      26.89793321
Pt       3.58026541       7.65947002      26.83793326
Pt       7.77026618      10.19946998      26.80793329
Pt      10.54026616      10.18947070      26.70793315
Pt      -3.49973475      10.08947032      26.74793323
Pt      -0.70973455      10.05947059      26.92793318
Pt       2.00026549      10.10946983      26.91793319
Pt       4.88026584      10.15947002      26.83793326
Pt       9.16026605      12.64946979      26.90793320
Pt      -4.97973477      12.48947089      26.64793321
Pt      -2.12973463      12.44946998      26.86793324
Pt       0.61026544      12.47947067      26.95793315
Pt       3.39026559      12.58947032      26.98793324
Pt       6.29026521      12.65947002      26.92793318
Pt       0.78026546       1.19946986      29.30793353
Pt       3.52026571       1.21946984      29.02793308
Pt       6.29026521       1.22946995      29.09793326
Pt       9.13026536       1.09946984      29.27793332
Pt      11.89026559       1.30946975      29.26793333
Pt      14.76026643       1.15946978      29.33793350
Pt       2.11026550       3.68946975      29.20793339
Pt       4.95026554       3.64947003      29.21793338
Pt       7.73026575       3.80947011      29.15793320
Pt      10.49026597       3.69946998      29.19793340
Pt      13.28026498       3.59947007      29.18793317
Pt      -0.70973455       3.52946990      29.23793312
Pt       3.48026551       6.02946990      29.12793347
Pt       6.23026575       6.09947007      29.20793339
Pt       9.15026582       6.21947044      29.26793333
Pt      11.96026529       6.12947028      29.24793335
Pt      -2.17973458       6.06946986      29.11793324
Pt       0.67026544       6.04947036      29.08793326
Pt       4.91026557       8.55946964      29.09793326
Pt       7.72026552       8.63947051      29.31793328
Pt      10.60026563       8.59946960      29.21793338
Pt      -3.48973452       8.57947009      29.02793308
Pt      -0.69973456       8.50947040      29.19793340
Pt       2.08026553       8.45947021      29.17793342
Pt       6.26026595      11.05947059      29.12793347
Pt       9.15026582      10.98946994      29.07793351
Pt      -4.89973485      10.99947017      29.12793347
Pt      -2.11973464      10.97947067      29.25793310
Pt       0.63026545      10.97947067      29.23793312
Pt       3.42026533      10.94946998      29.30793353
Pt       7.72026552      13.38947051      29.26793333
Pt      -6.24973475      13.40947097      29.08793326
Pt      -3.50973498      13.41947025      29.05793329
Pt      -0.79973458      13.44946998      29.14793345
Pt       2.11026550      13.42947047      29.31793328
Pt       4.90026582      13.36947006      29.33793350
Pt      -7.76973425      14.22947067      31.46793362
Pt      -4.97973477      14.35947078      31.41793343
Pt      -2.18973481      14.22947067      31.49793335
Pt       0.62026544      14.25946944      31.62793347
Pt       3.41026557      14.14947074      31.51793333
Pt       6.16026605      14.29947036      31.69793316
Pt       2.23026551       2.01946991      31.60793348
Pt       4.88026584       2.06946986      31.60793348
Pt       7.57026590       2.24946993      31.35793348
Pt      10.57026590       2.00946992      31.61793324
Pt      13.39026559       2.12946981      31.63793369
Pt      -0.72973465       2.01946991      31.57793327
Pt       3.43026555       4.47947019      31.56793305
Pt       6.22026552       4.57947009      31.44793364
Pt       9.01026548       4.42947000      31.58793350
Pt      11.83026613       4.41946977      31.54793354
Pt      -2.21973454       4.51946967      31.36793324
Pt       0.54026544       4.55947011      31.46793362
Pt       4.67026580       6.86947006      31.51793333
Pt       7.68026603       7.03947013      31.45793339
Pt      10.53026594       6.99946969      31.61793324
Pt      -3.70973479       6.98946994      31.51793333
Pt      -0.74973463       6.92947000      31.45793339
Pt       1.96026553       7.00947040      31.42793318
Pt       6.26026595       9.48946994      31.41793343
Pt       9.06026567       9.53947013      31.55793329
Pt      -5.01973521       9.51946967      31.52793308
Pt      -2.18973481       9.28947013      31.42793318
Pt       0.66026545       9.45947021      31.55793329
Pt       3.51026548       9.35947078      31.49793335
Pt       7.71026576      11.89947074      31.50793358
Pt      -6.42973458      11.86947006      31.49793335
Pt      -3.70973479      11.91947025      31.42793318
Pt      -0.78973459      11.81947082      31.60793348
Pt       1.97026552      11.69947093      31.78793331
Pt       4.86026586      11.74947112      31.65793320
