507
Lattice="16.869 0.0 0.0 -8.434499999999996 14.608982536439697 0.0 0.0 0.0 71.47800000000001" Properties=species:S:1:pos:R:3 pbc="T T T"
O      -18.62000084      -0.80000007      35.35799726
H      -17.88000107      -1.25999999      34.93799909
H      -19.33000183      -1.43000007      35.33800061
O       29.23999977      16.99000168      37.87799962
H       29.21000290      18.04000092      37.84799893
H       28.36000252      16.72000122      37.78799756
O       -2.34000015     -19.68000031      38.87799771
H       -2.13000011     -19.03000069      39.59799893
H       -2.05000019     -19.29000092      38.00799878
O       -9.74000072     -18.75000191      29.39799817
H      -10.05000019     -19.68000031      29.65800031
H       -8.82000065     -18.69000053      29.68799909
O       11.32000065      17.65999985      29.04799588
H       11.12000084      16.70000076      29.24800046
H       12.22000027      17.85000038      29.44800122
O      -23.53000259      17.96000099      32.83800061
H      -23.05000114      17.83000183      33.67799886
H      -24.30000114      17.32999992      32.82799848
O      -16.80000114      24.31000137      36.24799855
H      -16.56999969      23.47000122      35.75800069
H      -17.73000145      24.22000122      36.56799825
O       -3.44000006     -13.17000008      35.42800077
H       -3.76999998     -12.68000031      36.26799901
H       -3.02000022     -13.90000153      35.82800038
O      -16.36000061      41.31999969      32.97800000
H      -17.00000000      41.99000549      33.34799893
H        0.45000002      41.47000122      32.03799756
O        7.32000065       6.53000069      32.60799916
H       -2.00999999      20.67000198      32.72799809
H        7.66000032       6.07000065      31.80799802
O        7.11000013       8.06000042      30.19799741
H        6.41000032       7.37000036      30.22799619
H        7.06000042       8.28000069      31.14799817
O      -22.26000023       0.43000001      33.06800015
H      -21.35000038       0.80000007      33.01799901
H      -22.18000221      -0.43000001      33.51799710
O        0.25000000       1.08000004      33.10799916
H       -0.44000003       0.63000000      32.58799871
H        0.97000003       0.43000001      33.17799886
O       -5.95000029      10.60000038      37.57799848
H       -5.65000010       9.78999996      38.11799939
H       -6.84000015      10.40999985      37.22799809
O      -40.62000275      10.36000061      29.78799756
H      -40.00000000       9.67000103      29.40799649
H      -40.03000259      11.14000130      29.72800000
O      -17.47999954      -1.25000000      39.65799840
H      -17.63000107      -2.23000002      39.79799779
H      -16.56999969      -1.28000009      39.19799932
O      -21.87000084      37.80000305      39.12799962
H       -4.12000036      37.93000031      38.72800000
H      -22.15000153      36.95999908      38.67799886
O      -25.18000031       2.48000002      36.76799901
H      -24.48000145       2.36000013      36.10799916
H      -24.94000244       3.35000014      37.24800046
O      -13.00000095       7.07999992      34.42799886
H      -12.50000000       6.89000034      35.26800092
H      -13.90000153       7.37000036      34.76799710
O        2.37000012      -8.33000088      37.83800061
H        2.53999996      -8.60000038      36.91799863
H        1.75000012      -8.95000076      38.26799901
O      -48.15000153     -14.21000099      30.42799695
H      -32.22000122     -14.25000095      30.30799802
H      -31.21000099     -14.39000034      31.38799985
O       -9.82000065      22.29999924      33.90799840
H       -9.27000046      23.09000015      33.94800122
H       -9.32000065      21.52000237      33.59799893
O        5.35000038      -7.75000048      30.04799970
H        5.55000019      -7.68000031      29.08800061
H        4.57000017      -8.38000107      30.20799954
O      -29.65999985     -14.25000095      37.41799863
H      -29.79000092     -14.13000107      38.40799840
H      -28.67000198     -14.38000107      37.43799909
O       14.71000099       2.53000021      30.21799787
H       14.50000000       2.86000013      31.14799817
H       15.34000015       3.16000009      29.84799893
O       29.50000000       8.03999996      34.45799954
H       29.01000023       8.06000042      33.56800015
H       30.48000145       7.87000084      34.14800008
O       39.19000244       3.00000000      29.94799741
H       39.72000122       3.83000016      30.16799863
H       39.52000046       2.49000025      29.09799893
O      -21.70000076      40.36000061      32.11799939
H      -21.00000191      40.90000153      32.57799848
H      -21.25000000      40.03000259      31.29799970
O       15.52000046       0.17000002      31.01799710
H       14.79000092      -0.38000003      30.61799939
H       15.39000034       1.02000010      30.55799802
O        3.22000027      34.29999924      37.58799871
H        2.29999995      34.15999985      37.20799954
H        2.97000027      34.05000305      38.52799924
O       12.06000137       2.71000028      29.55799802
H       11.51000023       1.95000005      29.70799954
H       13.05000114       2.53000021      29.75799878
O       13.41000080      -3.07000017      35.83799871
H       12.46000099      -2.85000038      36.01799710
H       13.55000019      -3.72000003      35.11799939
O       -5.47000027      -6.23000050      30.39800199
H       -4.89000034      -6.75000000      29.79799970
H       -5.46000004      -6.89000034      31.12799962
O       44.10000229     -15.40000057      36.26799901
H       43.37000275     -16.00000000      35.81799825
H       44.58000183     -14.93000031      35.55799802
O        7.21000004     -11.75000095      38.02799924
H       -1.53000009       1.94000006      37.87799962
H        7.46000051     -11.64000034      38.98800023
O       24.89000130      -9.42000008      32.97800000
H       24.16000175     -10.18000031      33.04799970
H       25.73000145      -9.93000031      32.96799977
O        4.99000025       6.23000050      29.73799832
H        4.22000027       5.79000044      30.18799909
H        5.03999996       5.96000004      28.75799878
O        8.59000015       6.93000031      35.02799924
H        8.21000004       6.78999996      34.10799726
H        8.22000027       6.19999981      35.50799878
O      -13.90999985      12.60000134      29.18799909
H      -14.04000092      13.56000042      29.52799924
H      -12.93000126      12.46000099      29.47800000
O        3.68000031     -10.30000114      33.45799954
H        3.52000022     -10.00000000      32.53799947
H        3.44000006      -9.59000015      34.17800077
O      -23.72000122       2.28000021      33.82799848
H      -23.11000061       1.48000002      33.86799939
H      -23.22000122       3.06000018      34.12799962
O        8.05000114      -7.11999989      38.78799947
H        7.57999992      -6.25000000      38.84800084
H        7.74000072      -7.47000027      37.90800031
O      -24.06999969      45.05000305      38.09799893
H      -24.95000076      45.52000046      38.01799901
H      -24.08000183      44.23000336      37.47800000
O      -18.46000099      -8.44000053      39.69799741
H      -18.65999985      -8.94000053      40.53799947
H      -17.94000053      -7.57000017      39.91799863
O       14.20000076      24.06000137      33.99799855
H       22.19000053       8.61000061      34.20799764
H       -1.69000018      23.90000153      33.89799817
O        0.18000001      12.39999962      29.96799787
H        1.12000000      12.22000027      29.62799771
H        0.02000000      13.33000088      29.69799741
O        1.11000013      17.88999939      31.40799840
H        1.21000004      17.52000046      32.32799848
H        1.88000011      17.56000137      30.96799977
O      -28.04000092       3.25000024      33.42800077
H      -28.18000031       2.59000015      34.16799863
H      -27.68000031       2.72000027      32.72799809
O      -16.78000069      -2.47000003      34.84799893
H      -16.93000031      -3.40000010      35.18799909
H      -16.37000084      -2.46000004      33.92799886
O       -8.77000046       0.28000000      29.77799924
H       -8.90999985       0.73000008      28.96799787
H       -9.45000076       0.54000002      30.43799909
O        3.40000010      -9.28000069      30.74799855
H        2.72000027      -8.68000031      30.35799726
H        3.34000015     -10.04000092      30.18799909
O        0.14000000      19.16000175      38.54799779
H       -0.59000003      19.80000114      38.81800015
H        0.38000003      18.77000046      39.43800099
O       16.04000092      48.60000229      30.25799878
H       16.92000008      48.25000381      30.53799947
H       16.15000153      48.89000320      29.33799680
O      -36.91000366      -7.69000053      36.84799893
H      -37.75000000      -7.90000010      37.32799848
H      -36.48000336      -8.53999996      36.95799954
O      -20.15999985       4.76000023      37.10800107
H      -19.65000153       4.01000023      37.49800046
H      -12.32999992      -9.53000069      37.79799970
O      -15.33000088      -7.32000065      30.01799710
H      -15.20000076      -7.13000059      29.02799924
H      -16.26000023      -7.28000069      30.13799985
O      -12.11999989      27.53000069      33.83799871
H      -12.38000011      27.04000282      34.61799939
H      -11.25000000      27.85000038      33.99799855
O       21.07999992      25.45999908      35.64799817
H       20.88999939      24.60000038      35.19800122
H       28.78000069      10.97000027      36.36799939
O       -4.07000017       9.76000023      29.90800031
H       -3.13000011      10.03000069      29.76799710
H       -3.90000010       8.80000019      30.20799954
O       27.29000092      12.96000004      39.06799825
H       28.03000259      13.18000031      39.64800008
H       27.53000069      12.06999969      38.60799916
O       -3.00000000       1.14999998      34.05799993
H       -2.34000015       0.67000002      34.61799939
H       -3.55999994       1.71000004      34.74800046
O       17.76000214      -2.79000020      32.37799962
H       17.59000015      -2.15000010      31.61799939
H       18.69000053      -3.02000022      32.21799977
O       20.95000076       7.11000013      39.85799916
H       20.90000153       7.63000011      40.66799863
H        5.05000019       6.92000008      39.76800092
O      -25.89000320      29.87000275      38.65800031
H      -26.65000153      30.21000099      39.04799970
H      -25.72000122      30.47000122      37.82800038
O        8.10000038       9.59000015      32.82799848
H        8.31999969      10.53000069      32.67799886
H        8.96000004       9.16000080      32.74799855
O        6.87000036      -4.05000019      36.52799924
H       -2.40000010      10.78999996      36.06800015
H        7.24000025      -3.14000010      36.75799878
O       22.91000175       0.84000003      31.60799726
H       22.59000015       1.51000011      30.98799832
H       22.64000130      -0.10000001      31.34799893
O       21.67000008      34.77000427      32.59799893
H       21.91000175      33.85000229      32.93799909
H       21.29000092      35.31999969      33.35800107
O      -36.90000153      27.01000214      30.38799985
H      -37.20000458      26.42000198      31.12799962
H      -36.32000351      26.52000237      29.84799893
O        0.21000001       8.07000065      29.30799802
H        1.23000002       7.97000027      29.51800092
H       -0.20000002       7.23000050      29.74800046
O      -27.11000252      14.92000103      37.85799726
H      -27.02000046      14.38000107      36.98799832
H      -26.90000153      14.28999996      38.57799848
O       20.77000046     -12.20000076      35.86799939
H       20.69000053     -12.84000015      36.66799863
H       20.81999969     -11.28000069      36.17799886
O       16.24000168     -23.46000290      30.29799588
H       15.25000095     -23.31000137      30.29799588
H       16.48000145     -23.37000084      31.21799787
O      -15.98000050      33.65000153      36.39799817
H      -16.43000031      34.40000153      35.99800046
H      -16.70000076      32.99000168      36.50799878
O       10.97000027      20.18000031      31.24799855
H       11.65000057      20.04000092      31.99799855
H       10.50000095      19.31999969      31.30799802
O       17.60000038      -1.19000006      30.01799710
H       16.89000130      -0.68000007      30.35799726
H       17.45000076      -1.63000000      29.13799985
O       41.11000061      20.90999985      36.49799855
H       40.93000412      21.63000107      35.76799901
H       40.16000366      20.57000160      36.66799863
O        6.07000065     -19.51000023      37.63799985
H        5.43000031     -18.96000099      37.11799939
H        5.76000023     -20.43000031      37.63799985
O        4.59000015      10.45000076      31.90799840
H        4.96000004       9.99000072      32.70799954
H        4.01000023       9.84000015      31.44799741
O      -14.23000145      11.05000019      39.05799993
H      -14.93000031      11.43000031      39.57800038
H      -14.43000031      10.02000046      38.99799855
O       -3.64000034      13.66000080      36.94799932
H      -11.83000088      28.66000175      37.82800038
H       -4.58000040      13.75000095      36.90800031
O      -30.82000351      20.45999908      35.31799825
H      -31.79000092      20.64000130      34.97800000
H      -30.25000000      21.33000183      35.08799871
O      -22.38000107      -2.13000011      33.76799901
H      -23.34000015      -2.26000023      33.64799817
H      -22.06000137      -2.84000015      33.20799954
O      -16.68000031       9.82999992      34.27799924
H      -17.07999992      10.05000019      35.10799916
H      -16.51000023      10.66000080      33.78799947
O        1.64000010       8.06000042      35.46799977
H        1.80000007       8.22000027      36.44800122
H        1.38000011       8.96000004      35.07799848
O       19.51000023      12.65000153      36.77799924
H       28.51000023      -1.18000007      36.90800031
H       19.57999992      12.16000080      37.66800054
O       11.40999985      14.76000023      30.44799741
H       11.30000019      14.82999992      31.44799741
H       10.70000076      14.19000053      30.22799619
O        2.19000006       8.59000015      38.30799802
H        2.85000038       8.03000069      38.77799924
H        1.30000007       8.19000053      38.56800015
O       -9.68000031      -0.73000008      34.23799832
H       -9.35000038      -0.71000004      35.17799886
H       -9.42000008       0.17000002      33.89799817
O       10.66000080      37.93000031      32.41799863
H       11.26000023      38.69000244      32.34799893
H       10.48000145      37.66000366      31.48800023
O        8.25000000      27.80000305      36.56799825
H        9.23000050      27.78000069      36.49799855
H        8.13000011      28.20000076      37.45799954
O       -8.22000027      17.96000099      29.23799832
H       -8.42000103      18.94000053      29.42800077
H       -7.23000050      18.02000046      29.30799802
O        5.38000059      -1.50000000      30.35799726
H      -12.39000130      -1.03000009      30.34799893
H        5.63000011      -1.36000013      29.44800122
O       -2.32000017      32.58000183      32.98799832
H       -2.38000011      31.68000221      33.43799909
H       -3.24000001      32.96000290      33.21799787
O       19.78000069     -28.88000298      33.47799809
H       20.36000061     -28.02000046      33.41799863
H       20.45999908     -29.54000282      33.74799855
O      -18.89000130      19.12000084      36.39799817
H      -18.37000084      18.38000107      36.74800046
H      -18.87000084      18.89000130      35.41799863
O       -1.33000004      10.32999992      29.25799878
H       -0.79000002      11.03000069      29.75799878
H       -0.83000004       9.49000072      29.54799970
Pt       1.39000010       0.65000004      26.83799680
Pt       4.20000029       0.92000008      26.84799893
Pt       7.11000013       0.77000010      26.71800168
Pt       9.87000084       0.71000004      26.83799680
Pt      12.69000053       0.75000000      26.78800138
Pt      15.40000057       0.65999997      27.00799878
Pt       2.82000017       3.23000002      26.77799924
Pt       5.77000046       3.21000004      26.88799985
Pt       8.49000072       3.17000008      26.81800015
Pt      11.23000050       3.18000031      26.83799680
Pt      14.14000034       3.05000019      26.71800168
Pt      -0.06000000       3.09000015      26.78800138
Pt       4.30000019       5.56000042      26.71800168
Pt       7.06000042       5.57000065      26.96799787
Pt       9.93000031       5.53000021      26.82799848
Pt      12.75000095       5.61000061      26.76799710
Pt      -1.42000008       5.65000010      26.88799985
Pt       1.47000003       5.61000061      26.83799680
Pt       5.73000002       7.92000055      26.75799878
Pt       8.56000042       7.94000053      26.94800122
Pt      11.40000153       7.90000010      26.89799817
Pt      -2.72000027       8.16000080      26.79799970
Pt       0.05000000       8.22000027      26.81800015
Pt       2.98000002       8.01000023      26.70799954
Pt       7.30999994      10.42000008      27.09799893
Pt      10.05000019      10.32999992      26.95799954
Pt      -4.05000019      10.55000114      26.78800138
Pt      -1.34000003      10.59000015      26.93799909
Pt       1.48000002      10.55999947      26.68799909
Pt       4.24000025      10.45000076      26.77799924
Pt       8.46000004      12.93000126      27.00799878
Pt      -5.43000031      13.01000118      26.91799863
Pt      -2.70000005      13.05000114      26.90799649
Pt       0.12000000      12.90999985      26.81800015
Pt       2.85000038      12.90999985      27.04799970
Pt       5.75000048      12.75000095      26.97799619
Pt       0.09000000       1.56000006      24.44800122
Pt       2.94000006       1.50000000      24.60799726
Pt       5.76000023       1.58000004      24.44800122
Pt       8.53999996       1.48000002      24.40799649
Pt      11.40000153       1.49000001      24.44800122
Pt      14.07000065       1.48000002      24.37799771
Pt       1.62000000       4.01000023      24.47799619
Pt       4.52000046       3.96000028      24.52799924
Pt       7.28000069       3.95000005      24.42800077
Pt       9.94000053       3.98000026      24.33799680
Pt      12.75000095       3.92000008      24.53799756
Pt      -1.24000001       4.01000023      24.52799924
Pt       3.07000017       6.46000004      24.46799787
Pt       5.82000017       6.42000008      24.42800077
Pt       8.53000069       6.43000031      24.52799924
Pt      11.31000042       6.41000032      24.46799787
Pt      -2.67000008       6.43000031      24.48799832
Pt       0.27000001       6.41000032      24.58800061
Pt       4.53000021       8.93000031      24.39799817
Pt       7.28000069       8.88000107      24.55799802
Pt       9.95000076       8.85000038      24.63799985
Pt      -4.12000036       8.81000042      24.52799924
Pt      -1.17000008       8.84000015      24.51800092
Pt       1.60000014       8.82000065      24.43799909
Pt       5.86999989      11.27000046      24.53799756
Pt       8.57000065      11.27000046      24.54799970
Pt      -5.46000004      11.24000072      24.57799848
Pt      -2.53000021      11.16000080      24.46799787
Pt       0.22000001      11.21000099      24.48799832
Pt       2.96000004      11.26000023      24.47799619
Pt       7.14000034      13.71000099      24.51800092
Pt      -7.02000046      13.77000046      24.56800015
Pt      -4.07000017      13.70000076      24.57799848
Pt      -1.31999993      13.59000111      24.41799863
Pt       1.54000020      13.69000053      24.41799863
Pt       4.32000017      13.67000103      24.53799756
Pt      -8.28000069      14.51000118      22.19799741
Pt      -5.40999985      14.55000019      22.30799802
Pt      -2.59000015      14.44000149      22.13799985
Pt       0.19000001      14.44000149      22.16799863
Pt       3.01000023      14.49000168      22.08799680
Pt       5.79000044      14.52000046      22.07799848
Pt       1.56000006       2.41000009      22.20799954
Pt       4.44000053       2.40000010      22.16799863
Pt       7.21000004       2.35000014      22.10800107
Pt      10.00000000       2.21000004      22.16799863
Pt      12.90000057       2.33000016      22.02799542
Pt      -1.22000003       2.36000013      22.11799939
Pt       3.13000011       4.85000038      22.19799741
Pt       5.85000038       4.79000044      22.14799817
Pt       8.72000027       4.81000042      22.07799848
Pt      11.36000061       4.81000042      22.12799771
Pt      -2.62000036       4.74000025      22.14799817
Pt       0.21000001       4.73000002      22.16799863
Pt       4.36000013       7.28000069      22.16799863
Pt       7.19000053       7.16000032      22.14799817
Pt      10.05000019       7.33000040      22.22799619
Pt      -4.09000015       7.24000025      22.17800077
Pt      -1.16000009       7.20000029      22.15799649
Pt       1.62000000       7.20000029      22.13799985
Pt       5.86000013       9.72000027      22.14799817
Pt       8.62000084       9.65999985      22.24800046
Pt      -5.38000059       9.73000050      22.28799756
Pt      -2.55000019       9.59000015      22.17800077
Pt       0.31000000       9.60000038      22.16799863
Pt       3.04000020       9.68000031      22.10800107
Pt       7.21000004      12.10000038      22.14799817
Pt      -6.92000008      12.13000107      22.28799756
Pt      -3.93000007      12.06999969      22.18799909
Pt      -1.16000009      11.97000027      22.16799863
Pt       1.57000005      12.09000111      22.06800015
Pt       4.33000040      12.16000080      22.13799985
Pt       1.59000015       0.71000004      19.99000037
Pt       4.43000031       0.68000007      19.98000050
Pt       7.18000031       0.73000008      19.85000038
Pt       9.96000099       0.63000000      19.71000028
Pt      12.80000114       0.63000000      19.77000046
Pt      15.52000046       0.73000008      19.74000037
Pt       3.01000023       3.08000040      19.88000036
Pt       5.77000046       3.15000033      19.78000045
Pt       8.57999992       3.21000004      19.80000043
Pt      11.34000015       3.06000018      19.78000045
Pt      14.20000076       3.07000017      19.73000038
Pt       0.17000002       3.08000040      19.78000045
Pt       4.35000038       5.55000019      19.86000037
Pt       7.07999992       5.67000008      19.82000041
Pt       9.92000008       5.62000036      19.80000043
Pt      12.69000053       5.52000046      19.89000035
Pt      -1.21000004       5.51000023      19.88000036
Pt       1.62000000       5.48000050      19.93000043
Pt       5.80000019       8.14000034      19.86000037
Pt       8.60000038       8.09000015      19.84000039
Pt      11.42000103       8.03000069      19.80000043
Pt      -2.67000008       7.92000055      19.85000038
Pt       0.18000001       7.95000029      19.89000035
Pt       2.98000002       8.02000046      19.84000039
Pt       7.20000029      10.51000023      19.89000035
Pt       9.97000027      10.45000076      19.96000040
Pt      -4.05000019      10.44000053      19.93000043
Pt      -1.25999999      10.35000038      19.82000041
Pt       1.46000016      10.50000095      19.76000047
Pt       4.36000013      10.48000145      19.83000040
Pt       8.53000069      12.94000053      19.83000040
Pt      -5.52000046      12.83000088      20.10000038
Pt      -2.62000036      12.81000042      19.84000039
Pt       0.03000000      12.84000015      19.79000044
Pt       2.89000010      12.89000034      19.72000039
Pt       5.66000032      12.90000057      19.80000043
Pt       0.25000000       1.34000003      17.44000030
Pt       2.92000031       1.39999998      17.59000015
Pt       5.73999977       1.31999993      17.69000054
Pt       8.70000076       1.52000010      17.50000024
Pt      11.40999985       1.45000005      17.47000027
Pt      14.12000084       1.52000010      17.45000029
Pt       1.68000007       3.82000017      17.53000045
Pt       4.33000040       3.86000013      17.51000023
Pt       7.11000013       3.93000007      17.43000031
Pt      10.05000019       3.97000027      17.52000022
Pt      12.86000061       3.84000015      17.54000020
Pt      -1.14999998       3.81000018      17.53000045
Pt       2.93000007       6.27000046      17.58000040
Pt       5.72000027       6.34000015      17.49000025
Pt       8.48000050       6.38000011      17.48000050
Pt      11.44000053       6.39000034      17.54000020
Pt      -2.59000015       6.21000051      17.58000040
Pt       0.22000001       6.34000015      17.57000017
Pt       4.36999989       8.73000050      17.47000027
Pt       7.07000017       8.73999977      17.57000017
Pt       9.97000027       8.81000042      17.55000043
Pt      -4.08000040       8.81000042      17.49000025
Pt      -1.26999998       8.67000008      17.53000045
Pt       1.66000009       8.63000011      17.50000024
Pt       5.66000032      11.16000080      17.44000030
Pt       8.46000004      11.09000111      17.47000027
Pt      -5.50000000      11.18000031      17.73000026
Pt      -2.66000009      11.21000099      17.57000017
Pt       0.18000001      11.09000111      17.44000030
Pt       2.88000011      11.09000111      17.45000029
Pt       7.19000053      13.64999962      17.52000022
Pt      -6.96000051      13.49000072      17.56000042
Pt      -4.20000029      13.67000103      17.70000029
Pt      -1.28000009      13.64999962      17.57000017
Pt       1.49000001      13.44000053      17.42000032
Pt       4.41000032      13.56000042      17.44000030
Pt      -8.35000038      14.42000008      15.00000000
Pt      -5.62000036      14.31000137      15.23000002
Pt      -2.67000008      14.28999996      15.26999998
Pt       0.16000001      14.34000015      15.07000017
Pt       2.86999989      14.44000149      15.11999989
Pt       5.68000031      14.31000137      15.14000035
Pt       1.65000010       2.22000027      15.06000042
Pt       4.31000042       2.10000014      15.38000012
Pt       7.11999989       2.15000010      15.26000023
Pt       9.87000084       2.16000009      15.14000035
Pt      12.82000065       2.22000027      15.06000042
Pt      -1.28000009       2.21000004      15.15000057
Pt       2.95000029       4.64000034      15.11000014
Pt       5.82000017       4.61000013      15.07999993
Pt       8.60000038       4.64000034      15.23000002
Pt      11.60000038       4.68000031      15.17999983
Pt      -2.55000019       4.68000031      15.03999996
Pt       0.12000000       4.61999989      15.26999998
Pt       4.43000031       6.97000027      15.17999983
Pt       7.17000008       7.10000038      15.19000054
Pt      10.09000015       7.03000021      15.34000015
Pt      -3.95000005       7.06000042      15.29000044
Pt      -1.21000004       7.04000044      15.19000054
Pt       1.66000009       7.04000044      15.11999989
Pt       5.73000002       9.50000000      15.22000027
Pt       8.63000011       9.52000046      15.16000033
Pt      -5.55000019       9.62000084      15.15000057
Pt      -2.76999998       9.45000076      15.15000057
Pt       0.13000000       9.54000092      15.22000027
Pt       2.85000038       9.41000080      15.19000054
Pt       7.19000053      11.94000053      15.11000014
Pt      -6.85000038      11.98999977      15.25000000
Pt      -4.15999985      11.96000099      15.38000012
Pt      -1.30000007      11.98999977      15.26000023
Pt       1.42000008      11.89000034      15.05000019
Pt       4.24000025      12.01000118      15.15000057
