516
Lattice="16.869 0.0 0.0 -8.434499999999996 14.608982536439697 0.0 0.0 0.0 71.47800000000001" Properties=species:S:1:pos:R:3 pbc="T T T"
O        6.73000050      -0.08000001      37.25799878
H        5.86000013       0.40000004      37.31799825
H        6.95000076      -0.34000003      38.21799787
O       15.13000107       3.43000031      29.88799794
H       14.33000088       2.94000006      29.61799844
H       15.64000130       3.51000023      29.06799825
O        2.21000004       1.74000013      38.02799924
H        1.86000001       0.87000006      38.32799848
H        1.60000014       2.06000018      37.35799916
O       -3.25999999      -5.17000008      38.91799863
H       -4.01999998      -5.72000027      38.91799863
H       -3.44000006      -4.41000032      38.24799855
O        0.11000001      26.56000137      30.34799798
H        0.34000003      27.45000076      30.00799878
H        0.75000000      25.95000076      29.92799791
O        2.03000021      20.90999985      29.91799863
H        1.42000008      21.38000107      30.56799825
H       10.07999992       6.41000032      28.99799855
O       -7.30999994     -15.48999977      38.80799802
H       -6.64000034     -15.68000031      39.55799993
H       -7.11000013     -16.04000092      37.93799909
O       22.93000221      20.52000046      30.92799886
H       23.04000092      20.65999985      31.95799859
H       23.05000114      19.57000160      30.73799833
O       -3.73000026      21.69000244      33.66799863
H       -4.20000029      22.55000114      33.45799764
H       -3.32000017      21.88000107      34.55799802
O        2.92000031       7.53000021      38.86799939
H        2.56000018       7.29000044      37.87799771
H        2.48000002       6.81000042      39.52799924
O       11.98000050       0.44000003      32.86799939
H       11.40999985      -0.24000001      33.26799901
H       28.38000107       1.33000004      32.74799855
O       15.02000046      -0.18000001      29.98799833
H        7.36000061      15.04000092      30.04799874
H       14.56999969      -0.05000000      29.08799871
O      -10.03000069     -19.56000137      35.10799916
H       -9.14000034     -19.87000084      34.72799905
H      -10.53999996     -19.57000160      34.24799855
O        8.13000011       1.35000002      30.72799905
H        7.99000025       2.19000006      30.25799783
H        8.71000099       0.78000003      30.21799882
O        2.73000002      19.65999985      36.87799771
H        1.88000011      19.23000145      36.59799798
H        2.39000010      20.51000214      37.23799833
O       14.77000141      -3.99000025      30.27799829
H       -1.18000007      -3.62000012      30.36799844
H       14.75000000      -4.96000004      30.33799871
O       -6.82000065     -15.23000145      30.16799863
H       -5.81000042     -15.41000175      30.07799848
H       -6.93000031     -14.34000015      29.79799779
O        0.27000001       8.44000053      32.26799901
H        0.36000001       7.74000072      31.52799829
H        1.14000010       8.76000023      32.53799756
O       19.11000061      10.81000137      30.25799783
H       19.33000183       9.87000084      30.41799863
H       18.71000099      11.19000053      31.09799894
O      -11.73000145       5.84000063      38.36799939
H      -12.55000114       6.37000036      38.69799932
H      -12.03000069       5.24000072      37.62799771
O       12.23000050       7.40000010      39.60799916
H       12.13000107       8.34000015      39.88799985
H       11.39000034       7.18000031      39.09799894
O      -14.90000153      10.10000038      38.77799924
H      -24.19000244      24.91000175      38.48799833
H      -14.91000080       9.05000019      38.77799924
O       18.83000183      -4.81000042      37.96799977
H       18.21000099      -4.10000038      37.64799817
H       11.36000061      10.02000046      37.83799871
O      -12.65999985      15.86000061      35.63799890
H      -12.90000057      15.53000069      34.75799878
H      -12.28000069      15.07000065      36.19799836
O       -4.25000000       3.41000032      39.14800008
H       -4.63000011       2.51999998      39.06800016
H       -4.99000025       3.95000005      38.79799779
O        3.14000010      14.55000019      30.04799874
H        3.64000034      13.74000072      29.77799829
H        3.39000010      14.68000031      30.98799833
O       -9.92000008      26.90000153      33.65799936
H        6.09000015      26.87000084      33.17799791
H       -9.22000027      26.81000137      33.01799901
O        5.76000023      13.76000023      37.05799802
H        6.59000015      13.55000019      36.50799878
H        5.32000017      12.88000107      37.05799802
O        5.96000004      -0.07000000      29.97799810
H        6.81000042       0.42000002      30.28799852
H        6.21000051      -0.19000001      28.98799833
O        2.03000021      13.52000141      34.22799810
H        1.21000004      14.08000088      34.46799882
H        2.22000027      13.05000114      35.10799916
O        8.05000114      -0.08000001      34.62799962
H        8.02000046       0.28000000      35.56799920
H        7.27000046      -0.71000004      34.49799855
O        8.43000031      16.30000114      31.20799955
H        9.32000065      16.47000122      30.90799840
H        7.84000015      16.99000168      30.81799825
O       28.83000183      -9.60000038      32.39799817
H       20.87000084       5.81000042      32.55799897
H       28.43000221      -9.52000046      31.49799855
O        9.15000057      -2.53000021      32.17799886
H        9.71000099      -2.11000013      32.81799825
H        9.10000038      -1.76999998      31.49799855
O        4.54000044      31.44000053      30.12799867
H        4.66000032      31.51000214      31.10799821
H       21.90000153      30.58000183      29.87799867
O        6.14000034       7.15000057      36.04799874
H        6.24000025       6.88000011      36.95799859
H        6.42000008       8.11000061      36.14799817
O        2.12000012      -4.39000034      29.91799863
H        2.59000015      -4.86000013      30.57799848
H        2.40000010      -4.85000038      29.02799829
O       -4.36999989      12.82000065      30.30799897
H       -3.53000021      13.36999989      30.24799855
H       -4.38000011      12.02000046      29.70799859
O      -17.83000183      16.91000175      38.80799802
H      -17.09000015      16.48999977      39.36799939
H      -17.93000031      16.24000168      38.07799848
O       -3.00000000       9.94000053      29.09799798
H       -3.39000010       9.05000019      29.35799821
H       -2.04000020       9.98000050      29.54799874
O        2.79999995      -6.59000015      34.38799890
H        3.05000019      -7.55000067      34.07799848
H       11.76000023       8.24000072      35.19799836
O        5.34000015      11.14999962      36.82799848
H        4.48000002      11.19999981      36.41799863
H        5.90000057      10.80000019      36.10799916
O       -0.58000004       6.86000061      37.04799874
H      -17.50000191       5.91000032      37.15800031
H       -0.69999999       7.32000065      37.90799840
O       11.49000072       5.32000017      34.13799890
H       11.47000122       5.36000013      35.10799916
H       12.49000072       5.38000059      34.04799779
O       10.45000076       3.69000006      30.42799886
H       10.63000107       4.66000032      30.33799871
H       10.59000015       3.49000001      31.42799886
O      -13.78000069       8.03000069      30.28799852
H      -12.79000092       7.79000044      30.39799817
H      -13.92000103       7.97000027      29.25799878
O       11.56000042      -5.46000004      32.85799916
H       10.94000053      -5.31000042      33.62799867
H       12.09000111      -4.61000013      32.78799947
O        8.51000023       7.07000017      31.48799928
H        8.52000046       7.81000042      32.16799863
H        7.93000031       6.21000051      31.84799798
O       -5.03000021      15.26000023      34.55799802
H       -5.96000004      15.43000126      34.23799833
H       -4.44000053      15.66000080      33.93799909
O       17.37000084      23.51000023      33.56799825
H       17.73000145      24.41000175      33.23799833
H       18.19000053      23.13000107      34.02799829
O       12.21000099      12.69000053      35.34799798
H       12.21000099      13.66000080      35.15799840
H       11.97000027      12.28000069      34.49799855
O       11.75000095       0.80000007      39.16799863
H       11.24000072       0.07000000      38.71799787
H       12.44000053       0.48000002      39.85799916
O       13.51000023      18.65000153      36.39799817
H       12.70000076      18.83000183      35.78799852
H       13.36999989      17.65999985      36.49799855
O       -3.60000014      17.10000038      32.89799817
H       -2.67000008      17.25000000      33.16799863
H       -3.83000016      18.04000092      32.74799855
O       -7.23000050      12.02000046      32.91799863
H       -6.21000051      12.11000061      32.89799817
H       -7.40000010      12.04000092      31.92799791
O        5.56000042      18.28000069      36.37799867
H        4.76000023      18.67000198      36.86799939
H        5.22000027      17.40000153      35.96799882
O       -3.86000013       7.57999992      29.90799840
H       -4.73000002       7.14000034      29.78799852
H       -3.25999999       6.75000000      30.13799890
O        4.21000051      17.13000107      29.35799821
H        3.38000035      17.78000069      29.54799874
H        3.88000011      16.24000168      29.63799794
O       30.31999969      25.57000160      32.45799955
H       30.96000290      25.40000153      31.68799909
H       30.49000168      26.54000092      32.57799848
O       19.03000069       4.96000004      30.00799878
H       19.49000168       5.44000053      29.25799878
H       18.32000160       5.64000034      30.08799871
O      -12.76000023      12.10000038      29.26799806
H      -11.98999977      11.55000114      29.50799878
H      -13.61000061      11.57000065      29.54799874
O       26.31000137      46.69000244      36.07799848
H       25.90000153      46.16000366      35.31799920
H       25.61000061      47.27000427      36.62799867
O       22.53000069       4.34000015      29.17799886
H       23.40000153       4.05000019      29.48799833
H       21.97000122       3.52000022      29.41799863
O       -3.92000008      16.07000160      36.89799913
H       -4.40000010      15.80000019      36.12799867
H       -4.64000034      16.11000061      37.50799878
O       -6.51000023      21.89000130      36.47799810
H       -6.11000013      21.10000229      36.03799852
H        0.97000003       6.96000051      36.57799848
O       -5.63000011      -2.98000002      36.11799844
H       -6.01000023      -2.83000016      37.01799901
H       -6.01000023      -3.78999996      35.52799829
O        4.10000038      -2.81000018      32.71799787
H        4.15000010      -3.70000005      32.35799821
H        4.11000013      -2.37000012      31.82799848
O      -16.25000191      13.72000122      29.92799791
H      -15.30000114      13.79000092      29.70799859
H      -16.67000008      13.11000061      29.25799878
O        0.14000000       6.71000004      29.99799855
H       -0.04000000       7.21000004      29.12799867
H       16.09000015       6.43000031      30.23799833
O        8.00000000      -4.67000008      29.86799844
H        8.43000031      -4.93000031      30.71799787
H        8.75000095      -4.24000025      29.35799821
O       15.98000050      10.42000008      35.35799916
H       15.68000031       9.56999969      34.99799855
H       15.56000137      11.19999981      34.89799817
O       -9.19999981      18.81000137      37.71799977
H      -10.03000069      18.47000122      37.14799817
H       -9.38000011      18.64000130      38.64799817
O       -6.96000051      28.15000153      38.22800000
H       -7.59000063      28.08000183      38.96799977
H       -7.26000023      28.93000031      37.65799840
O       17.30000114      18.28000069      36.50799878
H       16.83000183      18.16000175      37.34799894
H       16.73000145      18.69000053      35.76799901
O       16.20000076      20.85000038      39.48799833
H       15.98000050      21.68000221      40.00799878
H       15.30000114      20.59000015      39.17799886
O       23.92000198       4.77000046      34.97799905
H       23.90999985       5.79000044      35.12799867
H       23.21000099       4.48000002      35.61799939
O       16.20000076      10.92000008      38.01799901
H       15.63000107      11.70000076      38.11799939
H       16.06000137      10.81000137      36.95799859
O        9.96000099       7.11999989      37.83799871
H        9.70000076       8.07000065      37.76799901
H        9.19000053       6.75000000      38.47800000
O       -0.95000005      13.88000011      39.78799947
H       -1.23000002      13.06000137      40.13799985
H       -0.94000006      14.52000046      40.51799901
O      -12.32999992      22.79000092      36.38799890
H      -12.30000019      23.61000061      36.96799882
H      -12.50000000      22.05000114      36.98799833
O       14.04000092       5.94000053      33.82799848
H       14.43000031       6.71000004      34.32799848
H       14.39000034       5.16000032      34.33799871
O       -0.53000003      28.13000107      34.35799821
H       -1.38000011      28.16000175      33.78799756
H        0.15000001      27.77000237      33.69799836
O       22.71000099      13.78000069      32.61799844
H       21.94000053      14.43000031      32.69799836
H       23.07000160      13.97000122      31.70799859
O       -6.81000042      30.27000237      36.51799901
H       -5.81000042      30.38000107      36.22799905
H       -7.27000046      31.11000061      36.31799825
O       10.60000038       3.08000040      32.89799817
H        9.62000084       2.89000010      33.05799802
H       10.84000111       3.87000036      33.45799764
O      -18.04000092      -0.85000002      39.56799825
H      -17.02000046      -0.88999999      39.33799871
H      -18.53000069      -0.90000004      38.65799840
O      -11.35000134      -2.74000025      39.75799878
H      -11.45000076      -3.44000006      40.41799863
H      -12.02000046      -2.00000000      39.87799962
O       -5.50000000      19.12000084      35.13799890
H       -5.39000034      19.27000046      34.14799817
H       -6.24000025      18.46000099      35.24799855
O        1.98000014       2.53999996      29.19799836
H        2.91000009       2.37000012      29.42799791
H        1.93000007       3.51000023      29.48799833
O       15.65000057       8.29000092      39.16799863
H       15.45000076       9.18000031      38.77799924
H       14.85000038       8.11000061      39.73799833
O        9.76000023      12.39999962      36.50799878
H       17.61000061      -1.76999998      35.86799844
H       10.65000057      12.56000042      36.03799852
O       16.34000015      18.39000130      30.25799783
H       15.94000053      18.73000145      31.06799825
H       17.35000229      18.57000160      30.33799871
O       12.96000004      10.63000107      37.46799787
H       12.94000053      11.43000031      36.92799886
H       13.27000046      10.91000080      38.34799894
O        1.60000014       9.63000107      35.09799894
H        0.64000005      10.07999992      35.20799859
H        1.65000010       8.90000057      35.71799882
O       15.41000175      37.09000015      34.61799844
H       16.04000092      37.21000290      33.82799848
H       15.86000061      36.79999924      35.44799836
O       -1.65000010      19.81000137      32.30799802
H       15.05000114      19.55000114      33.32799943
H       14.52000046      20.54000092      32.19799932
O        9.00000000      15.94000053      33.81799825
H        8.56000042      15.13000107      34.17799886
H        8.69000053      16.00000000      32.89799817
O       -0.41000003      17.07999992      33.15799840
H       -0.62000000      16.35000038      33.79799874
H       -0.34999999      16.54000092      32.32799848
O       12.20000076       9.19999981      31.97799810
H       12.80000114       8.62000084      31.41799863
H       11.80000114       8.79000092      32.77799829
O      -10.55999947       7.99000025      30.07799848
H      -10.45000076       8.06000042      29.08799871
H        7.23000050       7.61000061      30.49799855
Pt       1.77999997       0.62000000      15.24000168
Pt       4.59000015       0.80000007      15.10000229
Pt       7.38000011       0.85000002      15.34000016
Pt      10.14000034       0.75000000      15.21999741
Pt      12.89000034       0.68000007      15.22999955
Pt      15.78000069       0.73000008      15.21999741
Pt       3.17000008       3.17000008      15.24000168
Pt       6.08000040       3.21000004      15.11999894
Pt       8.82999992       3.22000027      15.33000183
Pt      11.58000088       3.24000001      15.09000016
Pt      14.47000027       3.13000011      15.18999863
Pt       0.34999999       3.00000000      15.21999741
Pt       4.41000032       5.53000021      15.11999894
Pt       7.22000074       5.58000040      15.43000031
Pt      10.13000011       5.53999996      15.38999939
Pt      13.02000046       5.58000040      15.31000138
Pt      -1.12000000       5.48000050      15.36999894
Pt       1.60000014       5.51000023      15.20000077
Pt       5.86000013       8.06000042      15.20000077
Pt       8.79000092       7.94000053      15.15999985
Pt      11.55000114       7.92000055      15.36999894
Pt      -2.50000000       8.00000000      15.35999680
Pt       0.23000002       7.97000027      15.41999817
Pt       3.15000033       7.97000027      15.20999909
Pt       7.30999994      10.48999977      15.25000000
Pt      10.09000015      10.27000046      15.00000000
Pt      -3.87000036      10.35000038      15.11000061
Pt      -1.12000000      10.45000076      15.31000138
Pt       1.68000007      10.42000008      15.36999894
Pt       4.58000040      10.46000004      15.25000000
Pt       8.72000027      12.94000053      15.22999955
Pt      -5.27999973      12.76000023      15.12999726
Pt      -2.51999998      12.90000057      15.20999909
Pt       0.30000001      12.90000057      15.25000000
Pt       3.11000013      12.81000042      15.31000138
Pt       5.90000057      12.92000008      15.22999955
Pt       0.27000001       1.59000015      17.52999878
Pt       3.09999990       1.54999995      17.50999833
Pt       5.88000011       1.39999998      17.63999939
Pt       8.69000053       1.35000002      17.70000077
Pt      11.44000053       1.39000010      17.61999894
Pt      14.21000099       1.47000003      17.47999955
Pt       1.76000011       3.99000025      17.57999802
Pt       4.52000046       4.00000000      17.50000000
Pt       7.26000023       3.76999998      17.68000031
Pt      10.02000046       3.84000015      17.81000138
Pt      12.82000065       3.94000030      17.63999939
Pt      -1.21000004       3.95000005      17.68000031
Pt       3.24000001       6.32999992      17.41999817
Pt       5.90000057       6.38000011      17.63999939
Pt       8.53999996       6.37000036      17.57999802
Pt      11.36000061       6.42000008      17.74000168
Pt      -2.56000018       6.37000036      17.70999909
Pt       0.27000001       6.27000046      17.63999939
Pt       4.41000032       8.82999992      17.61999894
Pt       7.24000025       8.78000069      17.59000016
Pt      10.01000023       8.88000107      17.47000122
Pt      -4.03000021       8.80000019      17.63999939
Pt      -1.08000004       8.76000023      17.67000199
Pt       1.74000013       8.73000050      17.61999894
Pt       5.88000011      11.30000019      17.63999939
Pt       8.57000065      11.31000042      17.55999756
Pt      -5.44000053      11.25000000      17.45999909
Pt      -2.62000036      11.19999981      17.63999939
Pt       0.32999998      11.23000050      17.68000031
Pt       3.13000011      11.32000065      17.68999863
Pt       7.22000074      13.78000069      17.54999924
Pt      -6.87000036      13.62000084      17.55999756
Pt      -3.98000026      13.71000099      17.59000016
Pt      -1.20000005      13.60000038      17.56999970
Pt       1.67000008      13.64000130      17.52000046
Pt       4.59999990      13.66000080      17.60000229
Pt      -8.27000046      14.50000000      19.88000107
Pt      -5.40999985      14.53000069      19.79000092
Pt      -2.55000019      14.45000076      19.92000199
Pt       0.18000001      14.35000038      19.90999985
Pt       3.02999997      14.44000149      19.93000031
Pt       5.82000017      14.56000137      20.02000046
Pt       1.59000015       2.41000009      19.88000107
Pt       4.41000032       2.41000009      19.86000061
Pt       7.24000025       2.33000016      20.00999833
Pt      10.04000092       2.18000007      19.99000168
Pt      12.86000061       2.32000017      19.97999955
Pt      -1.22000003       2.28000021      19.93999863
Pt       3.12000012       4.84000015      19.85000229
Pt       5.84000063       4.74000025      19.90999985
Pt       8.68000031       4.76000023      20.00000000
Pt      11.39000034       4.76000023      20.00000000
Pt      -2.58000016       4.75000000      19.95000077
Pt       0.24000001       4.73000002      19.88999939
Pt       4.50000000       7.27000046      19.89999771
Pt       7.17000008       7.19000053      19.93000031
Pt       9.97000027       7.34000015      19.88999939
Pt      -4.11000013       7.18000031      19.97999955
Pt      -1.16000009       7.15000057      20.02000046
Pt       1.66000009       7.16000032      19.82999802
Pt       5.82000017       9.71000099      19.86000061
Pt       8.61000061       9.63000107      19.81000138
Pt      -5.44000053       9.69000053      19.77999878
Pt      -2.56000018       9.50000000      19.82999802
Pt       0.31000000       9.55000019      19.96999741
Pt       3.02999997       9.60000038      19.96999741
Pt       7.18000031      12.16000080      19.93999863
Pt      -6.87000036      12.15000057      19.77999878
Pt      -4.01999998      12.06999969      19.89999771
Pt      -1.23000002      12.00000000      19.89999771
Pt       1.56000006      12.08000088      20.03999710
Pt       4.28999996      12.13000107      19.99000168
Pt       1.54999995       0.73000008      22.10799809
Pt       4.43000031       0.71000004      22.08799811
Pt       7.23000050       0.69999999      22.15799804
Pt       9.86000061       0.65000004      22.27799805
Pt      12.72000122       0.65999997      22.33799811
Pt      15.58000088       0.69000006      22.21799811
Pt       3.07000017       3.09999990      22.21799811
Pt       5.79000044       3.19000006      22.26799806
Pt       8.53999996       3.25000024      22.23799809
Pt      11.32000065       3.02999997      22.27799805
Pt      14.18000126       3.07000017      22.27799805
Pt       0.16000001       3.06000018      22.30799802
Pt       4.36000013       5.63000011      22.23799809
Pt       7.11999989       5.65000010      22.24799808
Pt       9.96000099       5.69000006      22.29799803
Pt      12.69000053       5.50000000      22.23799809
Pt      -1.20000005       5.46000004      22.25799807
Pt       1.64000010       5.43000031      22.16799815
Pt       5.84000063       8.09000015      22.23799809
Pt       8.59000015       8.07000065      22.21799811
Pt      11.42000103       8.00000000      22.21799811
Pt      -2.67000008       7.98000050      22.26799806
Pt       0.18000001       7.90000010      22.22799810
Pt       2.99000025       7.95000029      22.26799806
Pt       7.11999989      10.52000046      22.18799813
Pt       9.98000050      10.48999977      22.11799808
Pt      -4.00000000      10.48000145      22.14799805
Pt      -1.25000000      10.37000084      22.33799811
Pt       1.54000020      10.44000053      22.31799801
Pt       4.34000015      10.43000126      22.20799800
Pt       8.59000015      12.87000084      22.24799808
Pt      -5.51000023      12.83000088      22.01799806
Pt      -2.70000005      12.80000114      22.23799809
Pt       0.06000000      12.83000088      22.23799809
Pt       2.86999989      12.87000084      22.37799795
Pt       5.73000002      12.92000008      22.24799808
Pt       0.08000001       1.51000011      24.62799819
Pt       2.86000013       1.39000010      24.44799812
Pt       5.65000010       1.54999995      24.36799844
Pt       8.44000053       1.61000013      24.52799805
Pt      11.35000134       1.61000013      24.65799816
Pt      14.14000034       1.54999995      24.53799828
Pt       1.46000016       3.83000016      24.61799796
Pt       4.28000021       3.93000007      24.56799825
Pt       7.02000046       4.03999996      24.69799836
Pt       9.87000084       3.97000027      24.49799808
Pt      12.72999954       4.01999998      24.54799803
Pt      -1.38000011       3.98000026      24.58799823
Pt       2.92000031       6.21000051      24.52799805
Pt       5.70000076       6.44000053      24.50799831
Pt       8.45000076       6.43000031      24.62799819
Pt      11.27000046       6.45000029      24.54799803
Pt      -2.58000016       6.39000034      24.44799812
Pt       0.16000001       6.23000050      24.51799806
Pt       4.22000027       8.78000069      24.59799798
Pt       7.07999992       8.82000065      24.63799818
Pt       9.95000076       8.78000069      24.45799812
Pt      -4.08000040       8.82999992      24.53799828
Pt      -1.25000000       8.81000042      24.58799823
Pt       1.53000009       8.76000023      24.56799825
Pt       5.77000046      11.28000069      24.62799819
Pt       8.53000069      11.22000122      24.46799834
Pt      -5.57000065      11.19999981      24.43799837
Pt      -2.74000025      11.27000046      24.49799808
Pt      -0.02000000      11.30000019      24.60799821
Pt       2.90000010      11.24000072      24.49799808
Pt       7.10000038      13.66000080      24.54799803
Pt      -7.00000048      13.73000050      24.39799817
Pt      -4.15000010      13.64000130      24.32799824
Pt      -1.26999998      13.69000053      24.54799803
Pt       1.47000003      13.64000130      24.60799821
Pt       4.26000023      13.66000080      24.66799839
Pt      -8.50000000      14.50000000      26.85799821
Pt      -5.79000044      14.48000050      26.81799825
Pt      -2.88000011      14.42000008      26.73799833
Pt       0.05000000      14.50000000      26.83799823
Pt       2.86000013      14.48000050      26.91799815
Pt       5.68000031      14.58000088      26.96799834
Pt       1.42000008       2.28000021      27.05799802
Pt       4.23000002       2.13000011      26.76799853
Pt       6.98000002       2.18000007      26.91799815
Pt       9.72000027       2.36000013      26.89799865
Pt      12.46000099       2.43000007      27.02799829
Pt      -1.56000006       2.33000016      26.89799865
Pt       2.88000011       4.64000034      26.81799825
Pt       5.76000023       4.55000019      27.03799852
Pt       8.53000069       4.80000019      27.00799831
Pt      11.24000072       4.85000038      27.03799852
Pt      -2.84000015       4.82999992      26.84799846
Pt       0.04000000       4.64000034      26.84799846
Pt       4.26000023       7.02000046      26.98799833
Pt       7.07000017       7.16000032      26.85799821
Pt       9.88000011       7.25000000      26.95799859
Pt      -4.20000029       7.24000025      26.89799865
Pt      -1.39000010       7.11999989      26.81799825
Pt       1.39000010       7.15000057      26.95799859
Pt       5.55000019       9.58000088      26.78799804
Pt       8.38000107       9.73000050      26.89799865
Pt      -5.70000076       9.64000034      26.73799833
Pt      -2.82000017       9.63000107      26.92799791
Pt      -0.07000000       9.55000019      26.94799836
Pt       2.69000030       9.54000092      26.94799836
Pt       7.01000023      12.09000111      26.99799855
Pt      -7.11000013      12.13000107      26.71799834
Pt      -4.35000038      12.10000038      26.72799810
Pt      -1.31000018      12.19000053      26.93799813
Pt       1.49000001      11.98999977      26.85799821
Pt       4.17000008      12.06000137      26.91799815
