516
Lattice="16.869 0.0 0.0 -8.434499999999996 14.608982536439697 0.0 0.0 0.0 71.47800000000001" Properties=species:S:1:pos:R:3 pbc="T T T"
O       12.60000134      26.77000046      39.73799927
H       12.24000072      25.94000053      39.48799927
H       13.10000038      26.78000259      40.60799821
O      -16.80000114       4.50000000      35.47799905
H      -16.43000031       5.00000000      36.22799905
H      -17.14000130       5.17000008      34.74799950
O      -38.50000000     -17.45000076      36.69799836
H      -38.24000168     -16.55000114      36.37800057
H      -37.97000122     -17.47000122      37.54799874
O       32.00000000      19.49000168      36.47800095
H       32.51000214      18.90000153      35.86799844
H       31.04000092      19.41000175      36.25799973
O       -6.43000031     -14.36000061      35.21799882
H       -5.63000011     -14.86000061      35.22800095
H       -7.26000023     -14.82000160      35.34799798
O      -10.09000015     -20.42000008      29.87799866
H       -9.91000080     -19.92000198      29.05799897
H       -9.36000061     -20.85000038      30.27800019
O       11.31000042      15.41000175      30.24799760
H       11.18000031      15.48000145      31.22799905
H       10.53999996      14.78000069      30.03799851
O      -20.20000076      25.31999969      33.61800034
H      -19.57999992      26.06000137      33.57799752
H      -21.04000092      25.75000000      33.20799859
O      -18.46000099      27.43000031      33.71799882
H      -17.55000114      27.13000107      33.89799912
H      -18.92000008      27.48000145      34.56799729
O       -5.69000006      -7.16000032      35.16799958
H       -5.81000042      -7.97000027      35.71799882
H       -5.66000032      -7.30000019      34.22799905
O      -16.83000183      47.44000244      35.06799920
H      -16.02000046      47.46000290      35.60799821
H        0.30000001      47.60000229      34.11800034
O       11.47999954       4.41000032      39.83799966
H        2.40000010      18.47999954      39.31799920
H       12.30000019       4.18000031      39.39799912
O        5.57000065       3.53999996      29.26799805
H        5.75000048       4.53000021      29.34799988
H        4.67000008       3.41000032      29.43799622
O      -15.50000095       1.18000007      32.57799943
H      -16.44000053       0.80000007      32.56799920
H      -15.18000126       0.95000005      33.48799927
O        4.86000013       9.23000050      35.81799729
H        4.85000038       9.82000065      35.03799851
H        4.20000029       8.49000072      35.66799958
O       -5.13000011      12.82000065      32.85799821
H       -5.02000046      12.20000076      32.13800080
H       -4.30000019      12.87000084      33.24799760
O      -42.69000244      11.70000076      30.53799851
H      -42.32000351      11.09000111      31.22799905
H      -43.66000366      11.78000069      30.62799866
O      -11.38000011      -2.71000028      38.90799744
H      -11.60000038      -1.92000008      39.43800004
H      -10.76000118      -3.32000017      39.32799943
O      -27.08000183       5.11000061      39.13799699
H      -27.87000275       4.64000034      39.51799805
H      -27.05000114       4.79000044      38.18800004
O      -15.71000099      12.57999992      38.81799920
H      -16.50000000      12.49000072      38.20799859
H      -15.56000137      11.68000126      39.13799699
O      -46.35000229     -13.85000134      29.43799622
H      -28.53000259     -13.41000080      29.41799958
H      -30.09000015     -13.07000065      29.63799699
O       -7.80000019      22.06999969      32.11799844
H       -7.57999992      22.98000145      32.41799958
H       -6.83000040      21.78000259      31.88799889
O        4.69000006      -6.69000053      30.16799958
H        4.82000017      -6.37000036      29.25799973
H        5.64000034      -6.84000015      30.35799821
O       17.99000168       3.66000032      31.80799897
H       18.20000076       2.69000030      32.16799767
H       18.89000130       4.12000036      31.80799897
O       31.78000259       2.61000013      36.30799897
H       31.18000031       2.76000023      35.54799874
H       32.59000015       3.09000015      36.01799996
O       36.76000214       3.20000029      29.26799805
H       36.41000366       2.29999995      29.56799729
H       36.10000229       3.70000005      29.73799927
O      -24.08000183      39.44000244      29.28799851
H      -23.31000137      39.95000076      29.55799897
H      -24.89000130      39.95000076      29.47800095
O       15.46000099       1.05000007      29.79799683
H       16.27000046       0.62000000      29.48799927
H       15.69000149       2.04000020      29.79799683
O       -5.38000059      35.63000107      36.29799874
H       -5.97000027      36.33000183      36.72799905
H       -4.56000042      36.06000137      36.01799996
O       13.17000008       4.86000013      30.02799638
H       12.84000015       5.64000034      29.48799927
H       14.00000095       4.51000023      29.63799699
O       -5.95000029      -2.15000010      36.49799760
H       -6.21000051      -1.97000015      37.41799958
H       -6.24000025      -3.04000020      36.26799805
O       10.22000122      -0.77000010      34.24799950
H       10.38000107      -1.20000005      35.09799988
H        9.39000034      -0.18000001      34.36799844
O       -5.81000042      -2.85000038      32.77799828
H       -6.21000051      -2.01999998      33.33799775
H       -5.70000076      -2.37000012      31.88799889
O       43.30000305     -18.55000114      36.47800095
H       42.41000366     -18.16000175      36.79799874
H       44.16000366     -18.15000153      36.83799966
O      -18.05000114      42.20000458      37.13800080
H       -1.93000007      41.90999985      37.73799927
H      -18.36000061      41.73000336      36.35799821
O        5.30000019      21.17000198      39.02799828
H        4.97000027      21.04999924      39.94799836
H        4.64000034      21.04999924      38.35800011
O       24.05000305      -8.40000057      33.78799851
H       23.29000092      -8.66000080      33.21799882
H       24.79000092      -7.93000031      33.31799729
O        4.96000004       8.45000076      31.79799874
H        5.81000042       8.28000069      31.41799958
H        5.12000036       9.27000046      32.37799866
O        7.45000076       7.40000010      35.92799981
H        6.75000000       7.98000050      36.29799874
H        7.21000004       6.43000031      36.17799790
O      -13.82999992      13.36999989      30.56799920
H      -14.66000080      13.79000092      30.18799622
H      -13.21000099      14.06000042      30.17799790
O        3.70000005      -5.06000042      32.19799836
H        4.14000034      -5.66000032      31.52799828
H        3.85000014      -5.32000017      33.11799844
O      -22.93000221       3.81000018      36.44800027
H      -22.26000023       3.60000014      35.81799729
H      -22.67000198       4.72000027      36.70800050
O        3.69000006      -5.02000046      39.74799950
H        4.46000004      -4.50000000      39.42799790
H        3.76000023      -5.95000029      39.39799912
O      -21.63000107      47.95000076      32.69800027
H      -20.77000046      47.52000427      32.82799943
H      -22.28000259      47.64000320      33.37799866
O       11.57000065      21.38000107      32.59799988
H       20.70000076       7.43000031      32.48799927
H       -4.96000004      20.43000031      32.57799943
O        3.52000022     -14.46000099      39.72799714
H        4.44000053     -14.12000084      39.80799897
H        3.63000011     -15.50000095      39.62799866
O        0.65000004      14.41000080      30.15799744
H        0.20000002      14.23000145      29.25799973
H        0.09000000      15.01000023      30.69799836
O        2.82000017      17.51000023      30.05799897
H        2.41000009      17.47999954      30.95800050
H        3.39000010      18.35000038      30.09799607
O       -1.19000006      68.41000366      39.53800042
H       -1.29000008      67.87000275      38.67799790
H       -1.52000010      67.71000671      40.21799882
O      -18.20000076       0.54000002      32.51799805
H      -18.47000122       0.43000001      31.58799966
H      -18.47000122      -0.34000003      33.01799805
O       -9.68000031       1.38000011      31.41799958
H      -10.32000065       0.72000003      30.99799950
H       -9.73000050       2.07999992      30.72799905
O        1.03999996      -7.20000029      30.22799714
H        1.12000000      -7.86000013      29.47800095
H        1.14999998      -6.37000036      29.67799790
O       -6.82000065      46.45000458      38.95799859
H       -6.86000061      46.37000275      39.96799882
H       -7.00000048      47.39000320      38.78799851
O        1.34000003      22.78000069      37.30799897
H        1.31000018      23.75000000      36.90799935
H        0.55000001      22.31000137      36.85799821
O       17.05000114      47.98000336      29.67799790
H       16.61000061      47.66000366      28.84799607
H       17.90000153      47.43000031      29.78799851
O      -36.94000244      -1.75000012      36.11800034
H      -36.70000076      -0.94000006      36.53799851
H      -37.87000275      -1.90000010      36.31799920
O      -12.24000072       9.41000080      38.53799851
H      -12.05000019       9.53000069      37.58799775
H      -11.42000103       9.02000046      38.87800057
O      -19.70000076       3.60000014      38.64799912
H      -19.13000107       4.26999998      38.91799958
H      -10.89000130     -11.25000000      37.74799760
O      -19.40000153      -8.49000072      29.62799866
H      -18.98999977      -8.63000011      30.49800141
H      -18.85000038      -8.02000046      28.99799760
O      -10.84000111      31.94000244      33.53799851
H      -10.52000046      31.31000137      32.82799943
H      -11.30000019      31.43000031      34.24799950
O       21.72000122      24.05000305      34.48799927
H       21.33000183      24.69000053      35.16799958
H       30.42000008       8.63000011      34.94799836
O       -0.84000003       7.88000059      29.89799912
H       -0.39000002       7.74000072      28.99799760
H       -0.30000001       7.55000067      30.61799844
O        2.27000022       3.21000004      35.11799844
H        2.03000021       2.25000000      35.13799889
H        1.39000010       3.71000028      35.19800027
O       21.40999985      -0.42000002      35.71799882
H       21.82000160       0.21000001      36.38799889
H       22.12000084      -0.41000003      34.97799905
O        1.77999997     -12.57000065      38.61800034
H        2.45000005     -13.29000092      38.85799821
H        2.10000014     -11.97000027      37.83799966
O      -31.44000053      34.79000092      37.42799790
H      -31.11000061      35.33000183      38.21799882
H      -30.76000214      34.08000183      37.33799966
O        9.50000000      12.04000092      33.89799912
H       10.37000084      12.42000103      33.60799821
H        9.70000076      11.49000072      34.69799836
O        8.29000092       0.83000004      34.57799943
H       -0.25000000      15.32000065      35.53799851
H        8.56000042       1.83000016      34.61799844
O       22.75000000      -0.36000001      29.79799683
H       21.89000130       0.02000000      29.51799805
H       23.30000114      -0.41000003      28.99799760
O       22.61000061      26.20000076      30.67799790
H       23.21000099      25.80000114      29.96799882
H       22.61000061      27.17000198      30.39799912
O      -36.95000076      26.02000237      30.16799958
H      -36.78000259      25.67000198      29.24800141
H      -37.67000198      26.60000038      29.91799958
O       -9.18000031      -8.69000053      38.30799897
H       -8.61000061      -9.12000084      38.97800095
H      -10.05000019      -8.40999985      38.69799836
O        1.54999995      10.72000027      29.48799927
H        2.29999995      10.11000061      29.67799790
H        1.68000007      11.68000126      29.55799897
O      -25.25000000      14.82000160      39.09799798
H      -24.60000038      14.14000034      39.31799920
H      -24.77000237      15.69000149      39.13799699
O       24.70000076     -14.56000137      36.28799851
H       25.02000046     -14.38000107      37.26799996
H       24.12000275     -13.75000095      36.32799943
O       16.04000092     -25.34000206      30.03799851
H       16.67000008     -25.28000069      30.81799729
H       16.55000114     -25.15000153      29.25799973
O      -15.69000149      39.11000061      35.88800080
H      -15.95000076      39.42000198      34.94799836
H      -15.04000092      38.38000488      35.67799790
O       11.71000004      23.35000038      29.80799897
H       12.25000000      23.27000046      28.98799927
H       12.28000069      23.60000229      30.64799912
O       17.55000114      -0.65000004      29.67799790
H       17.65999985      -1.08000004      28.78799851
H       17.19000053      -1.31000018      30.33799775
O       41.27000427      11.73000145      37.53799851
H       40.28000259      11.81000137      37.41799958
H       41.42000198      11.70000076      38.54800065
O        2.92000031     -21.57999992      39.35799821
H        2.21000004     -20.97000122      39.61799844
H        3.61000037     -20.96000290      38.97800095
O        7.22000074       5.25000048      31.82799943
H        7.82000065       5.93000031      32.21799882
H        7.73000050       4.89000034      31.06799920
O      -17.53000069       8.48000050      37.24799950
H      -17.05000114       7.63000011      37.50799973
H      -17.04000092       8.98000050      36.51799996
O       -2.04000020      13.53000069      33.97800095
H       -9.74000072      28.75000191      33.66799958
H       -1.88000011      12.62000084      33.52800019
O      -29.13000107      17.72000122      34.56799729
H      -29.35000229      16.91000175      34.11800034
H      -28.90999985      18.39000130      33.86799844
O      -21.76000214       1.19000006      33.08799775
H      -22.32999992       0.38000003      33.30799897
H      -21.28000069       0.99000007      32.27800019
O       21.07999992     -25.47000122      36.87799866
H       20.43000031     -25.84000015      36.22799905
H       21.44000053     -26.27000046      37.34799988
O      -18.65000153      11.07999992      33.01799805
H      -19.20000076      10.98000050      32.15799744
H      -19.19000244      10.57000065      33.59799988
O        0.78000003      10.04000092      33.19799836
H       -0.13000000      10.43000126      32.94799836
H        1.45000005      10.66000080      32.78799851
O      -11.36000061      21.98000145      35.84799798
H      -10.70000076      22.34000206      36.50799782
H      -10.78999996      21.43000031      35.27799828
O       16.38000107      15.45000076      37.23799927
H       24.60000038      -0.04000000      37.59799988
H       17.06000137      15.79000092      37.86800034
O       16.88000107      22.09000015      33.32799943
H       17.27000046      22.90000153      32.89799912
H       16.73999977      22.31000137      34.25799973
O       -6.75000000       3.25999999      32.61799844
H       -6.14000034       2.55000019      32.92799981
H       -6.37000036       4.14000034      32.88799699
O        9.37000084      39.04000092      32.16799767
H       10.32000065      38.79000092      31.97799905
H        9.38000011      39.92000198      32.74799760
O        5.26999998      30.50000191      37.84799798
H        5.01000023      30.07000160      38.67799790
H        6.24000025      30.58000183      37.75799782
O       -6.39000034      20.21000099      29.97799714
H       -6.74000025      20.65000153      29.24800141
H       -5.59000015      20.78000069      30.16799958
O        3.22000027      -2.79999995      30.01799805
H      -12.71000004      -3.12000012      30.24799760
H        3.29000020      -2.18000007      29.28799851
O       -3.64000034      34.42000198      32.79800065
H       -3.66000032      34.21000290      31.81799920
H       -4.47000027      34.84000397      33.03799851
O       27.75000000     -23.28000069      33.68800004
H       27.09000015     -22.61000061      33.51799996
H       27.81000137     -23.40999985      34.65799744
O       -1.00000000      10.38000107      29.31800111
H        0.02000000      10.53000069      29.30799897
H       -1.12000000       9.36000061      29.57799943
Pt       1.47000003       0.68000007      26.92799790
Pt       4.39000034       0.78000003      26.81800111
Pt       7.13000059       0.79000002      26.71799882
Pt      10.07999992       0.74000001      26.80799897
Pt      12.76000023       0.67000002      26.80799897
Pt      15.51000118       0.76000005      26.86799653
Pt       2.85000038       3.02999997      26.91799958
Pt       5.66000032       3.16000009      26.95800050
Pt       8.49000072       3.13000011      26.86799653
Pt      11.31000042       3.21000004      26.89799912
Pt      14.21000099       3.09000015      26.76799805
Pt       0.11000001       3.01000023      26.76799805
Pt       4.31000042       5.59999990      26.78799851
Pt       7.07000017       5.50000000      26.63799699
Pt       9.99000072       5.49000025      26.85799821
Pt      12.85000038       5.59999990      26.66799958
Pt      -1.30000007       5.58000040      26.82799943
Pt       1.54000020       5.59999990      26.71799882
Pt       5.72000027       7.99000025      26.82799943
Pt       8.64000034       8.02000046      26.83799775
Pt      11.31000042       8.00000000      26.94799836
Pt      -2.70000005       8.11000061      26.89799912
Pt       0.08000001       8.15000057      26.87799866
Pt       2.96000004       8.07999992      26.83799775
Pt       7.16000032      10.53000069      26.93799622
Pt       9.93000031      10.43000126      27.02800019
Pt      -4.14000034      10.55999947      26.94799836
Pt      -1.38000011      10.48000145      27.08799775
Pt       1.56000006      10.43000126      26.87799866
Pt       4.41000032      10.45000076      26.77799638
Pt       8.53000069      12.88000107      26.78799851
Pt      -5.44000053      13.07000065      26.83799775
Pt      -2.65000010      12.92000008      26.84799988
Pt       0.20000002      13.00000095      26.78799851
Pt       3.04000020      12.86000061      26.89799912
Pt       5.80000019      12.92000008      26.85799821
Pt       0.08000001       1.54000020      24.35799821
Pt       3.01000023       1.50000000      24.47800095
Pt       5.85000038       1.63000000      24.50799592
Pt       8.60000038       1.43000007      24.40799744
Pt      11.54000092       1.51000011      24.46799882
Pt      14.28000069       1.44000006      24.44799836
Pt       1.64000010       4.00000000      24.51799805
Pt       4.53000021       3.86000013      24.58799775
Pt       7.37000036       3.90000010      24.34799988
Pt      10.13000011       3.88000011      24.42799790
Pt      12.86000061       3.88000011      24.34799988
Pt      -1.19000006       4.03000021      24.43799622
Pt       2.97000027       6.42000008      24.57799943
Pt       5.72000027       6.43000031      24.43799622
Pt       8.62000084       6.24000025      24.47800095
Pt      11.39000034       6.38000011      24.53799851
Pt      -2.56999993       6.51000023      24.42799790
Pt       0.19000001       6.47000027      24.52800019
Pt       4.36000013       8.90000057      24.45800050
Pt       7.20000029       8.82999992      24.50799592
Pt      10.03000069       8.73999977      24.58799775
Pt      -4.07000017       8.82999992      24.49799760
Pt      -1.16000009       8.88000107      24.58799775
Pt       1.61000013       8.92000008      24.48799927
Pt       5.73999977      11.32000065      24.45800050
Pt       8.61000061      11.25000000      24.55799897
Pt      -5.48000050      11.24000072      24.61800034
Pt      -2.62000036      11.24000072      24.57799943
Pt       0.20000002      11.43000031      24.53799851
Pt       2.92000031      11.40000153      24.48799927
Pt       7.18000031      13.60000038      24.48799927
Pt      -6.89000034      13.69000053      24.45800050
Pt      -4.15999985      13.77000046      24.49799760
Pt      -1.31999993      13.74000072      24.48799927
Pt       1.57000005      13.78000069      24.46799882
Pt       4.42000008      13.70000076      24.46799882
Pt      -8.29000092      14.48000050      22.23799927
Pt      -5.46000004      14.51000118      22.28799851
Pt      -2.55000019      14.44000149      22.22799714
Pt       0.11000001      14.41000080      22.08799775
Pt       2.97000027      14.46000099      22.14799912
Pt       5.82999992      14.52000046      22.03799851
Pt       1.63000000       2.42000008      22.21799882
Pt       4.44000053       2.40000010      22.17799790
Pt       7.21000004       2.33000016      22.05799515
Pt       9.98000050       2.15000010      22.14799912
Pt      12.87000084       2.25000000      22.11799653
Pt      -1.20000005       2.33000016      22.17799790
Pt       3.09000015       4.84000015      22.24799760
Pt       5.88000011       4.82999992      22.18799622
Pt       8.73999977       4.77000046      22.12799866
Pt      11.43000031       4.73000002      22.10799821
Pt      -2.69000030       4.78000021      22.14799912
Pt       0.25000000       4.82999992      22.17799790
Pt       4.44000053       7.24000025      22.16799958
Pt       7.20000029       7.22000074      22.25799592
Pt       9.97000027       7.33000040      22.24799760
Pt      -4.12000036       7.22000074      22.16799958
Pt      -1.14000010       7.19000053      22.10799821
Pt       1.68000007       7.26000023      22.18799622
Pt       5.81000042       9.67000103      22.22799714
Pt       8.57999992       9.68000031      22.29799683
Pt      -5.39000034       9.67000103      22.30799897
Pt      -2.60000014       9.56999969      22.32799943
Pt       0.25000000       9.53000069      22.18799622
Pt       3.00000000       9.67000103      22.10799821
Pt       7.22000074      12.06000137      22.14799912
Pt      -6.90000057      12.09000111      22.27800019
Pt      -4.03000021      12.04000092      22.22799714
Pt      -1.23000002      11.97000027      22.22799714
Pt       1.50000000      12.09000111      22.05799515
Pt       4.35000038      12.19000053      22.14799912
Pt       1.60000014       0.67000002      19.99000013
Pt       4.42000008       0.65999997      20.03000009
Pt       7.19000053       0.69999999      19.83000016
Pt       9.90000057       0.71000004      19.80000019
Pt      12.76000023       0.68000007      19.83000016
Pt      15.53999996       0.74000001      19.86000013
Pt       2.96000004       3.06000018      19.84000015
Pt       5.73000002       3.15000033      19.83000016
Pt       8.56000042       3.24000001      19.83000016
Pt      11.36000061       3.09000015      19.82000017
Pt      14.21000099       3.11000013      19.78000021
Pt       0.21000001       3.07000017      19.89000010
Pt       4.33000040       5.65000010      19.88000011
Pt       7.11999989       5.66000032      19.91000009
Pt       9.93000031       5.58000040      19.87000012
Pt      12.72000122       5.47000027      19.89000010
Pt      -1.22000003       5.49000025      19.87000012
Pt       1.65000010       5.44000053      19.99000013
Pt       5.81000042       8.07000065      19.84000015
Pt       8.57000065       8.07000065      19.90000021
Pt      11.38000011       7.97000027      19.82000017
Pt      -2.67000008       7.95000029      19.85000014
Pt       0.21000001       7.97000027      19.88000011
Pt       3.02000022       8.00000000      19.86000013
Pt       7.26000023      10.55999947      19.94000006
Pt      10.00000000      10.44000053      19.99000013
Pt      -4.00000000      10.43000126      19.95000017
Pt      -1.22000003      10.38000107      19.85000014
Pt       1.51000011      10.44000053      19.75000012
Pt       4.40000010      10.50000095      19.87000012
Pt       8.57000065      12.93000126      19.87000012
Pt      -5.48000050      12.78000069      20.09000015
Pt      -2.66000009      12.83000088      19.84000015
Pt       0.10000001      12.80000114      19.79000020
Pt       2.86000013      12.88000107      19.70000017
Pt       5.71000051      12.85000038      19.76000011
Pt       0.18000001       1.41000009      17.49000025
Pt       2.90000010       1.54999995      17.66000009
Pt       5.67000008       1.60000014      17.46000004
Pt       8.35000038       1.61000013      17.52999997
Pt      11.29000092       1.57000005      17.54999995
Pt      14.22000027       1.50000000      17.38000011
Pt       1.46000016       3.88000011      17.59999990
Pt       4.33000040       4.07000017      17.65000009
Pt       7.06000042       4.01999998      17.61000013
Pt       9.84000015       3.93000007      17.52999997
Pt      12.78000069       3.91000032      17.49000025
Pt      -1.30000007       3.93000007      17.56999993
Pt       2.94000006       6.41000032      17.56999993
Pt       5.75000048       6.56000042      17.51999998
Pt       8.52000046       6.50000048      17.58000016
Pt      11.37000084       6.23000050      17.61999988
Pt      -2.78000021       6.38000011      17.66000009
Pt       0.17000002       6.32999992      17.58000016
Pt       4.34000015       8.94000053      17.58000016
Pt       7.26000023       8.99000072      17.59000015
Pt      10.11000061       8.90999985      17.51999998
Pt      -4.03000021       8.93000031      17.51000023
Pt      -1.20000005       8.89000034      17.63999987
Pt       1.54000020       8.90000057      17.58000016
Pt       5.68000031      11.35000134      17.48000002
Pt       8.59000015      11.40999985      17.61999988
Pt      -5.50000000      11.32999992      17.65000009
Pt      -2.71000028      11.35000134      17.56999993
Pt       0.07000000      11.32000065      17.42000008
Pt       2.97000027      11.27000046      17.46000004
Pt       7.14000034      13.73000050      17.50000000
Pt      -6.85000038      13.75000095      17.70000005
Pt      -4.08000040      13.77000046      17.69000006
Pt      -1.36000013      13.67000103      17.50000000
Pt       1.41000009      13.68000031      17.52999997
Pt       4.30000019      13.78000069      17.45000005
Pt      -8.43000031      14.53000069      15.17000008
Pt      -5.62000036      14.56999969      15.31000042
Pt      -2.79999995      14.60000038      15.23999977
Pt      -0.11000001      14.56999969      15.23999977
Pt       2.76999998      14.46000099      15.19999981
Pt       5.40999985      14.51000118      15.09000015
Pt       1.41000009       2.36000013      15.13999987
Pt       4.09000015       2.40000010      15.27999973
Pt       7.03000021       2.44000006      15.19000006
Pt       9.90000057       2.24000001      15.28999996
Pt      12.67000103       2.37000012      15.13000011
Pt      -1.31000018       2.46000004      15.20999956
Pt       2.81000018       4.77000046      15.18000030
Pt       5.63000011       4.70000029      15.29999971
Pt       8.44000053       4.75000000      15.25000000
Pt      11.18000031       4.78000021      15.27999973
Pt      -2.83000016       4.89000034      15.19999981
Pt       0.08000001       4.87000036      15.18000030
Pt       4.09000015       7.27000046      15.25999975
Pt       7.10000038       7.13000059      15.34999943
Pt       9.82000065       7.19000053      15.40999985
Pt      -4.28999996       7.16000032      15.25000000
Pt      -1.43000007       7.23000050      15.33999968
Pt       1.31999993       7.30000019      15.15999985
Pt       5.59999990       9.68000031      15.19000006
Pt       8.43000031       9.73000050      15.26999998
Pt      -5.59000015       9.68000031      15.18000030
Pt      -2.76999998       9.65999985      15.17000008
Pt      -0.04000000       9.58000088      15.01999950
Pt       2.74000025       9.65000057      15.11999988
Pt       6.97000027      12.15000057      15.10999966
Pt      -7.00000048      12.11999989      15.36999988
Pt      -4.22000027      12.15000057      15.29999971
Pt      -1.37000012      12.00000000      15.18000030
Pt       1.39999998      12.03000069      15.00000000
Pt       4.14000034      11.96000099      15.19000006
