510
Lattice="16.869 0.0 0.0 -8.434499999999996 14.608982536439697 0.0 0.0 0.0 71.47800000000001" Properties=species:S:1:pos:R:3 pbc="T T T"
O      -14.23000145      -0.64000005      32.59799846
H      -15.07000065      -0.72000003      33.05799945
H      -14.30000114      -1.19000006      31.85799869
O      -38.17000198     -34.43000031      38.88799937
H      -39.18000031     -34.45000076      38.94799884
H      -38.06000137     -34.52999878      39.95799907
O       26.17000198      16.18000031      37.86799891
H       25.88000107      16.94000053      38.45799907
H       26.20000076      16.52000046      36.93799861
O       -7.98000050     -18.32999992      30.00799830
H       -8.92000008     -18.50000191      30.32799800
H       -8.02000046     -18.40999985      28.97799952
O       13.61000061      21.79000092      37.48799975
H       13.11000061      20.95000076      37.71800120
H       13.16000080      22.63000107      37.75800021
O      -18.04000092      19.22000122      31.50800021
H      -17.18000031      19.13999939      31.05799945
H      -18.21000099      19.97000122      32.05799754
O        0.99000007     -12.21000099      37.74799807
H        0.06000000     -12.51000023      37.95799907
H        1.41000009     -12.51000023      36.90799983
O      -15.47000027      39.00000000      34.20799907
H      -16.22000122      38.80000305      34.74799807
H        2.04000020      38.23000336      34.09799846
O        6.47000027       8.01000023      29.13799937
H        7.52000046       7.87000084      29.12799724
H        6.10000038       7.16000032      29.61799891
O      -20.22000122      -4.11000013      33.01800044
H      -20.57000160      -3.21000004      32.78800090
H      -20.96000290      -4.76000023      33.21799930
O       -0.28000000      -1.05000007      30.06799968
H       -0.65000004      -0.94000006      29.15799983
H        0.06000000      -1.95000005      30.07799800
O       -5.26999998       5.86000013      39.82799991
H       -5.31000042       6.86000061      39.88799937
H       -4.66000032       5.68000031      39.09800036
O      -31.66000175      26.73000145      38.17800029
H      -31.46000099      27.70000267      38.28799899
H      -32.53000259      26.60000038      38.56799777
O      -18.57000160       3.68000031      34.66800006
H      -26.71000290      19.20000076      34.56799968
H      -18.97000122       3.40000010      33.84799846
O      -39.15000153      11.29000092      30.33800013
H      -38.73000336      10.95000076      29.48799785
H      -40.11000061      11.13000011      30.31799586
O      -11.14000130      -3.39000010      33.59799846
H      -11.70000076      -2.63000011      33.82799800
H      -11.72000027      -4.07000017      33.13799937
O      -19.79000092      31.71000290      39.50799830
H       -2.89000010      31.02000237      38.76800044
H      -20.75000000      31.80000114      39.59800036
O      -27.24000168       6.69000053      32.86799891
H      -27.12000084       6.84000015      33.83800013
H      -28.13000107       7.09000063      32.76799853
O        9.32000065     -12.46000099      35.24799807
H        9.25000095     -13.44000053      34.84799846
H        8.43000031     -12.04000092      35.02799876
O      -51.52000427     -14.28000069      33.02799876
H      -35.40999985     -14.70000076      33.45799907
H      -34.67000198     -13.31000137      33.20799907
O       -6.19999981      20.83000183      34.16800006
H       -5.89000034      19.88000107      34.13799937
H       -6.28999996      20.97000122      35.09799846
O        3.04000020      -6.43000031      29.24799998
H        2.09000015      -6.68000031      29.54799922
H        3.76999998      -6.88000011      29.64799769
O       11.37000084       1.74000013      31.69799693
H       12.36000061       1.92000008      31.80799945
H       11.14000130       2.74000025      31.79799922
O       27.02000046       4.07000017      32.74799807
H       27.40000153       3.66000032      33.52799876
H       27.10000038       5.09000015      32.73799785
O       39.15999985       5.88000011      30.34799846
H       38.49000168       5.46000004      29.76800044
H       39.76000214       5.18000031      30.69799884
O      -21.01000023      35.68000031      31.08800013
H      -21.13000107      35.59000397      32.01799853
H      -20.02000046      35.52000427      30.80799754
O       10.72000027      -2.21000004      35.25800021
H       11.43000031      -2.32000017      35.88799937
H       10.48999977      -3.05000019      34.84799846
O       -0.07000000      32.63000107      39.58799823
H        0.44000003      33.01000214      40.32799991
H       -0.92000008      32.17000198      39.77799876
O       17.39000130      -2.67000008      35.36799891
H       17.50000191      -2.61000013      36.31799968
H       16.51000023      -3.17000008      35.23799785
O       13.28000069       0.84000003      29.37800105
H       12.52000046       1.47000003      29.51800044
H       12.84000015      -0.08000001      29.41799815
O        5.26999998      -5.90000057      36.79799922
H        6.07000065      -5.56000042      36.39799769
H        4.71000004      -5.20000029      37.24799807
O       -8.23000050      -6.40000057      29.93799861
H       -7.86000013      -5.78000021      29.31799968
H       -9.09000015      -5.91000032      30.23799785
O       46.85000610     -26.27000046      36.12799914
H       46.63000107     -25.60000229      36.84799846
H       47.64000320     -25.87000084      35.62799914
O       12.90000057     -11.43000031      36.49799807
H        3.82000017       3.30000019      35.69799884
H       13.79000092     -11.14000130      36.17800029
O      -20.45999908      34.65000153      37.47799952
H       -2.58000016      34.65999985      37.66799815
H      -20.57000160      35.28000259      36.72799762
O       28.53000259     -12.59000015      32.25799830
H       28.16000175     -13.52000141      32.23799975
H       29.28000259     -12.60000134      31.59799846
O        3.84000015       8.27000046      33.20799907
H        3.52000022       8.16000080      32.25799830
H        3.44000006       7.56000042      33.72799952
O        8.10000038      11.38000011      39.25799830
H        7.26000023      11.19999981      38.73799975
H        8.44000053      10.45000076      39.23799975
O      -18.01000214      15.46000099      30.19800075
H      -17.21000099      15.65000057      29.70799907
H      -17.81000137      15.11000061      31.10800059
O        7.95000029      -8.43000031      33.10799869
H        8.93000031      -8.31000042      33.27800067
H        7.81000042      -8.56000042      32.11799891
O      -23.29000092       2.32000017      35.14799769
H      -23.15000153       1.48000002      34.60799869
H      -22.36999893       2.48000002      35.53799899
O      -20.32999992      44.19000244      36.79799922
H      -20.55999947      45.14000320      36.78799899
H      -20.90999985      43.82000351      37.51800044
O       14.50000000      25.42000008      30.17799647
H       22.81999969      10.38000107      31.11799891
H       -2.29000020      24.60000038      29.57799800
O        6.53000069     -18.89000130      35.35800059
H        6.24000025     -18.57999992      36.24799998
H        5.82999992     -18.62000084      34.69800075
O        1.58000004       7.15000057      36.57799991
H        0.65000004       6.85000038      36.69800075
H        1.61000013       7.96000051      37.15799983
O       -0.65999997      17.49000168      33.33799823
H        0.23000002      17.88999939      33.39799769
H       -1.14000010      18.11000061      32.75800021
O      -24.34000015       5.03999996      29.72799952
H      -24.53000069       4.69000006      28.84799846
H      -23.43000221       4.59000015      30.03799708
O      -15.76000118      -4.01999998      32.94799693
H      -14.88000011      -4.36000013      32.61799891
H      -15.53000069      -3.61000037      33.85799869
O       -6.03000069      -3.87000036      29.93799861
H       -6.37000036      -4.09000015      29.03800090
H       -6.75000000      -3.50000024      30.45799907
O        6.14000034      -5.39000034      30.17799647
H        6.04000044      -5.06000042      29.24799998
H        6.22000027      -4.40000010      30.50799830
O       28.18000031      14.55000019      38.51800044
H       28.00000191      14.61000061      39.51799853
H       27.48000145      15.17000103      38.28799899
O       20.21000099      48.15000153      30.00799830
H       20.57000160      49.03000259      30.34799846
H       20.37000275      48.06000137      29.00799830
O      -29.79000092     -16.18000031      37.41799815
H      -30.28000069     -16.13000107      38.24799998
H      -29.42000198     -15.25000095      37.28800090
O      -18.28000069      -0.34999999      32.53799899
H      -19.12000084      -0.88999999      32.59799846
H       -9.47000027     -15.30000114      31.69799693
O      -12.98000145      -0.50000000      29.93799861
H      -12.59000015       0.38000003      29.85799678
H      -13.90999985      -0.40000004      29.53800090
O      -10.21000004      26.16000175      31.15799983
H      -10.64000034      26.31000137      32.06799968
H      -10.69000053      26.73000145      30.48800166
O       15.71000099      18.73000145      35.77800067
H       16.40000153      18.39999962      36.29799922
H       24.31000137       3.68000031      34.96799930
O       -2.32000017      13.25000000      29.00799830
H       -3.25999999      13.42000008      29.32799800
H       -1.83000016      14.14000034      28.98799785
O      -17.72000122       7.57999992      39.14799960
H      -17.84000015       7.19000053      40.07799800
H      -18.57000160       8.01000023      38.91799815
O       29.29000092      10.35000038      38.57799991
H       29.98000145      10.90000057      39.08799823
H       28.49000168      10.94000053      38.40799983
O        0.53000003      -0.32000002      34.17800029
H       -0.40000004      -0.25000000      33.86799891
H        0.61000001      -1.10000002      34.81799777
O       16.81000137      -6.28000021      31.90799983
H       17.07999992      -5.48000050      32.38799746
H       16.01000023      -6.65000010      32.33800013
O       22.52000046      11.07999992      37.63799937
H       21.92000198      11.90000057      37.42800029
H       22.00000000      10.40999985      38.14799960
O      -23.97999954      24.00000000      38.31799968
H      -24.64000320      23.54999924      38.97799952
H      -24.39000130      24.82999992      38.06799968
O        9.21000099       7.45000076      36.96799930
H        8.96000004       6.46000004      37.12800105
H        8.53000069       7.86000013      36.40799983
O        1.99000013      -8.02000046      32.92800029
H       -6.26000023       7.03000021      33.79799922
H        1.29000008      -7.47000027      32.49799998
O       19.52000046      16.46000099      39.65799983
H       18.92000008      16.46000099      38.85799869
H       19.95000076      15.58000088      39.73799975
O       29.82999992      -1.61000013      32.39799960
H       29.60000038      -1.54999995      31.44799884
H       29.10000038      -1.13000011      32.82799991
O      -37.86000061      27.48000145      29.64799769
H      -37.13000107      26.85000229      29.50799830
H      -38.68000412      26.99000168      29.50799830
O       -1.88000011       5.68000031      30.14799769
H       -1.76999998       6.11000013      29.21799739
H       -1.82000017       4.68000031      30.17799647
O      -28.40000153      15.37000084      37.40799983
H      -27.44000244      15.11000061      37.31799777
H      -28.51000023      16.18000031      36.87799914
O       16.59000015     -15.98000050      39.25799830
H       15.84000111     -16.42000008      39.73799975
H       16.20000076     -15.09000015      38.85799869
O       15.42000008     -26.26000214      30.22799952
H       15.24000072     -26.53000069      29.29799922
H       16.38000107     -26.34000015      30.38799937
O      -11.61000061      28.45000076      33.91799815
H      -11.86000061      28.81000137      34.75800021
H      -12.39999962      28.47000122      33.32799800
O       10.00000000      20.38999939      29.40799983
H        9.23999977      20.90999985      29.71799739
H       10.73000050      21.04999924      29.58800013
O       14.28000069       2.33000016      32.56799968
H       14.63000107       2.40000010      31.64799960
H       14.74000072       1.39000010      32.78800090
O       41.21000290      14.02000046      37.91800006
H       41.04000092      13.79000092      38.88799937
H       41.98000336      14.63000107      37.81799968
O       -0.50000000     -24.11000061      37.47799952
H       -0.59000003     -23.28000069      38.03799899
H       -0.20000002     -24.68000221      38.31799968
O        3.32000017       7.95000029      30.24799617
H        4.14000034       8.31000042      29.90799983
H        2.83000016       8.82999992      30.24799617
O       -1.33000004      15.61000061      38.29799922
H      -10.09000015      30.26000214      39.19800075
H       -2.12000012      15.28000069      37.72799952
O      -33.02000046      19.75000191      38.54799922
H      -32.83000183      18.76000023      38.49799807
H      -32.20000458      20.06000137      38.99799998
O      -23.47000122      -0.02000000      33.87799914
H      -24.56000137       0.11000001      33.71799930
H      -23.33000183      -0.88999999      34.36799891
O       19.62000084     -25.62000084      34.29799922
H       20.15999985     -26.04000092      33.55799945
H       18.84000015     -26.26000214      34.43799861
O      -21.55000305       9.78999996      32.49799998
H      -21.68000221      10.31000042      31.64799960
H      -21.30000114       8.85000038      32.29799922
O       -2.85000038       7.76000023      33.47799952
H       -3.02000022       7.48000050      34.42800029
H       -1.97000015       7.39000034      33.25799830
O        0.19000001      23.45000076      39.34799846
H        0.32999998      22.95000076      38.49799807
H       -0.56000000      22.88999939      39.84799846
O       13.39000130      17.05000114      30.20799907
H       13.09000015      16.88000107      29.27799876
H       14.34000015      16.86000061      30.22799952
O       -1.05000007      10.02000046      35.37799724
H       -1.74000013      10.39000034      34.75800021
H       -0.82000005      10.76000118      35.94800075
O       -8.01000023      -2.88000011      37.12800105
H       -7.43000031      -2.43000007      36.55799754
H       -8.28000069      -2.25000000      37.84800036
O        9.04000092      36.90000153      29.53800090
H        8.81000042      37.26000214      30.47799952
H        9.08000088      35.90999985      29.62799724
O       15.31000042     -36.22000122      35.36799891
H       14.52000046     -36.61000061      35.91800006
H       15.07000065     -35.27000046      35.13799937
O        3.02999997      22.10000038      35.29799922
H        3.65000010      22.86000061      35.44800075
H        2.37000012      22.28000259      36.11799891
O       -7.11000013      17.71000099      30.52799876
H       -6.43000031      17.39000130      31.19799884
H       -6.80000019      18.62000084      30.19800075
O        1.65000010       0.88999999      29.24799998
H      -16.04000092       0.28000000      29.39799769
H        1.47000003       1.88000011      29.34799846
O       -6.88000011      30.15999985      28.99799617
H       -6.61000013      29.41000175      29.74799998
H       -6.44000053      30.90999985      29.33800013
O       20.38000107     -24.25000191      37.98799975
H       20.62000084     -25.08000183      37.41799815
H       19.63000107     -23.88000107      37.49799998
O      -15.21000004      14.07000065      30.96799739
H      -15.05000114      14.67000103      31.71799930
H      -15.68000031      13.35000038      31.36799891
O        0.99000007      11.46000004      31.99799998
H        1.21000004      10.69000053      32.63799937
H        0.06000000      11.24000072      31.69799693
Pt       1.81000006       0.72000003      26.90799983
Pt       4.51000023       0.73000008      26.83800013
Pt       7.33000040       0.88000005      26.81799968
Pt      10.14000034       0.81000000      26.81799968
Pt      13.03000069       0.65000004      26.83800013
Pt      15.76000118       0.80000007      26.83800013
Pt       3.17000008       3.09000015      26.89799769
Pt       5.98000050       3.29000020      26.99799617
Pt       8.73999977       3.25999999      26.75799830
Pt      11.56000042       3.25999999      26.85799678
Pt      14.38000107       3.20000029      26.83800013
Pt       0.28000000       3.16000009      26.92799647
Pt       4.48000002       5.66000032      26.87800105
Pt       7.27000046       5.58000040      26.87800105
Pt      10.02000046       5.69000006      26.74799998
Pt      12.98000145       5.51000023      26.79799922
Pt      -1.13000011       5.65000010      26.76799663
Pt       1.77999997       5.61000061      26.86799891
Pt       6.05999994       8.00000000      26.98799785
Pt       8.84000015       8.11000061      26.79799922
Pt      11.65000057       8.06000042      26.99799617
Pt      -2.46000004       8.00000000      26.81799968
Pt       0.22000001       7.96000051      26.75799830
Pt       3.09999990       8.23000050      26.83800013
Pt       7.44000006      10.60000038      26.97799952
Pt      10.15999985      10.53999996      27.01800044
Pt      -3.86000013      10.43000126      26.84799846
Pt      -1.09000003      10.48999977      26.66799815
Pt       1.69000018      10.58000088      26.79799922
Pt       4.61000013      10.60000038      26.97799952
Pt       8.68000031      13.05000114      26.82799800
Pt      -5.36000013      12.95000076      26.84799846
Pt      -2.58000016      12.92000008      26.85799678
Pt       0.24000001      13.02000046      26.79799922
Pt       2.99000025      12.92000008      26.80800136
Pt       5.91000032      12.87000084      26.83800013
Pt       0.30000001       1.61000013      24.52799876
Pt       3.07000017       1.51000011      24.57799800
Pt       5.90000057       1.61000013      24.40799983
Pt       8.53999996       1.53000009      24.46800120
Pt      11.38000011       1.54000020      24.44800075
Pt      14.27000046       1.54000020      24.60800059
Pt       1.63000000       3.96000028      24.62799724
Pt       4.55000019       3.99000025      24.53800090
Pt       7.32000065       4.01000023      24.35799678
Pt      10.03000069       3.98000026      24.45799907
Pt      12.90000057       3.92000008      24.49799617
Pt      -1.16000009       3.98000026      24.50799830
Pt       3.09000015       6.51999998      24.56799968
Pt       5.88000011       6.47000027      24.57799800
Pt       8.63000011       6.48000002      24.51800044
Pt      11.45000076       6.46000004      24.54799922
Pt      -2.55000019       6.45000029      24.43799861
Pt       0.25000000       6.39000034      24.43799861
Pt       4.55000019       8.90999985      24.59799846
Pt       7.24000025       8.95000076      24.61799891
Pt      10.14000034       8.98000050      24.66799815
Pt      -3.90000010       8.82999992      24.55799754
Pt      -1.10000002       8.82999992      24.37800105
Pt       1.68000007       8.93000031      24.48799785
Pt       5.88000011      11.34000015      24.45799907
Pt       8.57999992      11.40000153      24.58800013
Pt      -5.45000029      11.27000046      24.57799800
Pt      -2.60000014      11.30000019      24.47799952
Pt       0.25000000      11.26000023      24.44800075
Pt       3.18000031      11.32000065      24.50799830
Pt       7.30000019      13.82000065      24.47799952
Pt      -6.76000071      13.69000053      24.56799968
Pt      -3.92000008      13.82999992      24.49799617
Pt      -1.25999999      13.76000023      24.55799754
Pt       1.61000013      13.74000072      24.44800075
Pt       4.41000032      13.68000031      24.37800105
Pt      -8.31000042      14.54000092      22.21799739
Pt      -5.43000031      14.53000069      22.30799754
Pt      -2.60000014      14.39000034      22.17799647
Pt       0.20000002      14.40000057      22.16799815
Pt       2.97000027      14.45000076      22.10799678
Pt       5.82000017      14.56000137      22.11799891
Pt       1.58000004       2.42000008      22.20799907
Pt       4.43000031       2.42000008      22.10799678
Pt       7.20000029       2.29999995      22.07799800
Pt      10.04000092       2.20000005      22.11799891
Pt      12.88000107       2.29000020      22.13799937
Pt      -1.29000008       2.37000012      22.15799983
Pt       3.08000040       4.78000021      22.19800075
Pt       5.86999989       4.79000044      22.19800075
Pt       8.70000076       4.85000038      22.06799968
Pt      11.39000034       4.80000019      22.10799678
Pt      -2.63999987       4.77000046      22.19800075
Pt       0.25000000       4.73000002      22.22799952
Pt       4.46000004       7.32000065      22.19800075
Pt       7.21000004       7.17000008      22.15799983
Pt      10.01000023       7.28000069      22.19800075
Pt      -4.14000034       7.19000053      22.16799815
Pt      -1.22000003       7.16000032      22.12800105
Pt       1.59000015       7.15000057      22.17799647
Pt       5.82000017       9.77000046      22.17799647
Pt       8.63000011       9.63000107      22.30799754
Pt      -5.40000010       9.64000034      22.32799800
Pt      -2.60000014       9.55000019      22.23799785
Pt       0.29000002       9.65000057      22.08800013
Pt       3.01000023       9.65999985      22.15799983
Pt       7.20000029      12.10000038      22.15799983
Pt      -6.93000031      12.02000046      22.28799708
Pt      -4.03000021      12.09000111      22.20799907
Pt      -1.26999998      12.00000000      22.21799739
Pt       1.54999995      12.04000092      22.11799891
Pt       4.34000015      12.21000099      22.09799846
Pt       1.58000004       0.69000006      19.96000040
Pt       4.40000010       0.63000000      19.96000040
Pt       7.19000053       0.64000005      19.89000046
Pt       9.99000072       0.65999997      19.84000039
Pt      12.79000092       0.61000001      19.80000043
Pt      15.52000046       0.71000004      19.81000042
Pt       3.06000018       3.04000020      19.89000046
Pt       5.75000048       3.16000009      19.84000039
Pt       8.52000046       3.21000004      19.81000042
Pt      11.35000134       3.13000011      19.84000039
Pt      14.27000046       3.11000013      19.80000043
Pt       0.19000001       3.02000022      19.89000046
Pt       4.36000013       5.59999990      19.86000037
Pt       7.21000004       5.68000031      19.83000040
Pt       9.90000057       5.63000011      19.81000042
Pt      12.68000031       5.56000042      19.92000044
Pt      -1.22000003       5.53000021      19.97000039
Pt       1.62000000       5.46000004      19.93000031
Pt       5.78000021       8.06000042      19.82000041
Pt       8.60000038       8.10000038      19.85000038
Pt      11.43000031       8.03000069      19.86000037
Pt      -2.66000009       7.93000031      19.93000031
Pt       0.19000001       7.94000053      19.88000035
Pt       3.02999997       8.03999996      19.87000036
Pt       7.20000029      10.53000069      19.93000031
Pt      10.01000023      10.40000057      19.94000042
Pt      -4.03000021      10.40999985      19.94000042
Pt      -1.34000003      10.30000114      19.85000038
Pt       1.53000009      10.47000027      19.78000045
Pt       4.35000038      10.40999985      19.88000035
Pt       8.57999992      12.97000027      19.86000037
Pt      -5.55000019      12.83000088      20.08000040
Pt      -2.68000007      12.80000114      19.84000039
Pt       0.05000000      12.79000092      19.90000034
Pt       2.82000017      12.82000065      19.76000035
Pt       5.73999977      12.86000061      19.83000040
Pt       0.07000000       1.36000013      17.61000013
Pt       2.98000002       1.38000011      17.71000052
Pt       5.66000032       1.46000016      17.66000009
Pt       8.46000004       1.56000006      17.54000020
Pt      11.25000000       1.50000000      17.54000020
Pt      14.20000076       1.47000003      17.48000050
Pt       1.61000013       3.86000013      17.75000024
Pt       4.38000011       3.96000028      17.60000038
Pt       7.07999992       3.97000027      17.46000028
Pt       9.91000080       3.89000034      17.48000050
Pt      12.80000114       3.86000013      17.53000021
Pt      -1.24000001       3.91000032      17.58000040
Pt       2.84000015       6.41000032      17.60000038
Pt       5.75000048       6.34000015      17.58000040
Pt       8.57999992       6.37000036      17.34000039
Pt      11.30000019       6.32000017      17.49000025
Pt      -2.76000023       6.16000080      17.60000038
Pt       0.03000000       6.25000000      17.66000009
Pt       4.33000040       8.72000027      17.53000021
Pt       7.18000031       8.84000015      17.60000038
Pt      10.03000069       8.73999977      17.53000021
Pt      -4.01000023       8.70000076      17.56000018
Pt      -1.36000013       8.57000065      17.54000020
Pt       1.43000007       8.73000050      17.56000018
Pt       5.73999977      11.19999981      17.58000040
Pt       8.69000053      11.14000130      17.53000021
Pt      -5.59000015      11.16000080      17.63000012
Pt      -2.65000010      11.04000092      17.53000021
Pt       0.03000000      11.24000072      17.50000048
Pt       2.90000010      11.19000053      17.54000020
Pt       7.21000004      13.63000011      17.47000027
Pt      -6.99000072      13.61000061      17.57000041
Pt      -4.21000051      13.49000072      17.60000038
Pt      -1.33000004      13.57000160      17.67000032
Pt       1.44000006      13.67000103      17.50000048
Pt       4.45000029      13.64000130      17.46000028
Pt      -8.35000038      14.48000050      15.18000031
Pt      -5.43000031      14.47000027      15.23000002
Pt      -2.66000009      14.39000034      15.33999968
Pt       0.24000001      14.60000038      15.22000027
Pt       2.93000007      14.37000084      15.13999987
Pt       5.76000023      14.50000000      15.13000012
Pt       1.45000005       2.23000002      15.24000025
Pt       4.28000021       2.22000027      15.23000002
Pt       7.01000023       2.23000002      15.11000013
Pt       9.95000076       2.25000000      15.26000023
Pt      12.78000069       2.13000011      15.19000006
Pt      -1.25999999       2.18000007      15.19000006
Pt       2.91000009       4.58000040      15.38000012
Pt       5.66000032       4.71000004      15.17000055
Pt       8.40999985       4.64000034      15.09999991
Pt      11.28000069       4.72000027      15.19000006
Pt      -2.76000023       4.65000057      15.28000021
Pt       0.09000000       4.53000021      15.15000010
Pt       4.17000008       6.97000027      15.21000052
Pt       7.00000048       7.11000013      15.08000040
Pt       9.86000061       7.05000019      15.00000000
Pt      -4.18000031       7.04000044      15.13999987
Pt      -1.47000003       7.00000048      15.28000021
Pt       1.46000016       7.02000046      15.32999993
Pt       5.64000034       9.45000076      15.26000023
Pt       8.57000065       9.48000050      15.19999981
Pt      -5.53999996       9.46000004      15.12000036
Pt      -2.72000027       9.55000019      15.12000036
Pt      -0.04000000       9.41000080      15.17000055
Pt       2.70000005       9.47000027      15.24000025
Pt       7.04000044      11.96000099      15.26000023
Pt      -6.88000011      11.89000034      15.28000021
Pt      -4.15999985      11.94000053      15.31000042
Pt      -1.35000002      11.97000027      15.13000012
Pt       1.51000011      11.97000027      15.19000006
Pt       4.26000023      11.93000031      15.16000033
