516
Lattice="16.869 0.0 0.0 -8.434499999999996 14.608982536439697 0.0 0.0 0.0 71.47800000000001" Properties=species:S:1:pos:R:3 pbc="T T T"
O        5.58000040       3.82000017      38.51799997
H        5.26000023       3.65000010      39.46800073
H        4.89000034       3.42000008      37.89799913
O        3.95000005       1.14999998      30.46799882
H        4.49000025       0.30000001      30.35800203
H        3.04000020       0.78000003      30.35800203
O        8.51000023      12.65000153      29.84799989
H        8.53999996      12.88000107      28.83799775
H        9.38000011      12.11000061      29.99800142
O       17.51000023      -0.42000002      37.02799829
H       17.32999992      -1.34000003      37.37799867
H       17.59000015       0.12000000      37.86800035
O       -5.85000038       2.92000031      37.50799974
H       -6.56000042       3.67000008      37.44799836
H       -5.40000010       3.17000008      38.37799867
O       -6.43000031       0.10000001      37.25799783
H       -5.70000076      -0.49000001      36.82799943
H       -5.99000025       0.97000003      37.35799821
O        8.26000023       4.39000034      38.32799943
H        7.41000080       3.97000027      38.29799875
H        7.96000051       5.31000042      38.29799875
O      -10.36000061      23.73000145      38.58799966
H       -9.71000099      23.14000130      38.22799905
H        6.80000019      24.64000320      38.26799806
O       -5.09000015       5.86999989      30.62799867
H       -6.00000000       5.55000019      30.32799943
H       -4.53000021       5.10000038      30.37799867
O       -4.72000027       3.81000018      39.79800065
H       -4.58000040       3.32000017      40.64800103
H       -4.91000032       4.76000023      40.02800019
O        9.42000008       4.26999998      29.67799791
H        8.93000031       5.12000036      29.79799684
H        9.40000057       4.15000010      28.70799669
O        0.90000004      -5.52000046      30.29800065
H        1.68000007      -5.26999998      29.68800004
H        0.16000001      -5.03000021      29.85799821
O       14.91000080       0.71000004      39.15799936
H       15.04000092       1.71000004      39.52799829
H       -1.02000010       0.23000002      39.41799958
O       -5.25000048       9.17000008      36.39799913
H       -4.95000029       9.07000065      37.29800065
H       -5.13000011       8.34000015      35.95800050
O       -8.21000004       5.67000008      35.53799852
H       -8.82999992       6.28999996      36.00799783
H       -8.43000031       4.78000021      35.91799958
O       -3.43000031       2.58000016      33.73799928
H      -12.65999985      17.12000084      33.23799928
H       -3.53000021       2.83000016      34.64799913
O        4.64000034      -2.66000009      32.69800027
H        4.78000021      -3.61000037      32.40799936
H        5.42000055      -2.41000009      33.20799859
O       -9.35000038      15.04000092      34.98799928
H      -10.18000031      15.25000095      35.42799981
H       -8.82000065      14.66000080      35.73799928
O        3.38000035       5.47000027      31.69799836
H        2.89000010       5.90000057      30.98799928
H        2.74000025       4.84000015      32.13800081
O       -0.60000002       6.50000048      34.96799882
H       -1.41000009       6.03000069      34.67799981
H        0.14000000       5.82000017      35.08799775
O       11.18000031      -4.14000034      29.95799669
H       10.44000053      -4.44000053      30.65799936
H       10.99000072      -4.51000023      29.05799897
O       -1.63000000      -2.07000017      34.43800004
H       -0.73000008      -2.50000000      34.25799974
H       -1.41000009      -1.14999998      34.44799836
O      -17.57000160      14.91000080      37.00799974
H       -0.81000000      15.74000168      36.42799791
H        0.34999999      14.76000023      37.01799806
O        1.36000013       3.86000013      33.02800019
H        1.31999993       2.86999989      33.01799806
H        1.52000010       4.09000015      33.97800096
O       -4.03999996       0.77000010      28.85799821
H       -3.73000026      -0.10000001      29.28799852
H       -5.03000021       0.69000006      29.12799867
O       12.32999992       9.11000061      38.89799913
H       11.91000080       9.89000034      39.24799951
H       13.36000061       9.22000027      38.88799890
O        2.59000015      12.41000080      33.85799821
H        2.28000021      11.47999954      34.05799897
H        1.94000006      12.90999985      33.41799958
O        5.20000029       6.01000023      33.56799920
H        4.77000046       6.05000019      32.70799859
H        6.05999994       6.48000002      33.48799928
O       -8.19000053      -1.31000018      29.99800142
H       -8.53999996      -2.21000004      29.80799897
H       -8.28000069      -1.24000001      30.99799951
O       -1.41000009      11.97000027      34.00799974
H       -1.75000012      12.23000050      34.94799836
H       -1.29000008      11.04000092      33.87800058
O        9.35000038      -1.90000010      39.10800012
H        9.74000072      -1.23000002      38.44800027
H        9.82999992      -1.79000008      39.97799905
O       -2.59000015      12.98000145      36.15799936
H       -1.82000017      13.63000011      36.46799882
H       -2.71000028      12.24000072      36.81799920
O       -1.56000006      11.78999996      38.33799775
H       16.15000153      12.25000000      38.47800096
H       -1.96000004      11.72000027      39.26799997
O        0.82000005       9.35000038      31.48799928
H        0.25999999       9.08000088      32.21799882
H        1.19000006       8.50000000      31.11800035
O        1.87000012       7.03000021      30.10799821
H        0.87000006       6.88000011      29.98799928
H        2.27000022       7.02000046      29.23799928
O       11.11000061      -1.54000020      29.06799730
H        2.69000030      12.11000061      29.30799897
H       10.12000084      -1.37000012      29.20800050
O        4.96000004      12.43000031      32.49799951
H        5.72000027      12.63000011      33.07799943
H        4.11000013      12.62000084      32.88799699
O       -5.26000023       7.57999992      32.88799699
H       -5.31000042       7.23000050      33.82799943
H       -5.36999989       6.78999996      32.26799997
O       -8.65000057       6.49000072      30.68800004
H       -9.54000092       6.68000031      30.36800035
H       -8.05000114       7.29000044      30.65799936
O        5.19000053       6.47000027      38.41799958
H        5.40999985       5.48000050      38.46799882
H        4.82999992       6.53000069      37.47799905
O        3.97000027      13.31999969      36.20799859
H        4.24000025      12.50000000      36.65799936
H        3.61000037      13.00000095      35.37799867
O       -3.90000010       3.41000032      30.15799745
H       -3.91000032       3.32000017      29.17800172
H       -3.09000015       2.86000013      30.46799882
O        7.79000044       7.27000046      38.52800019
H        8.05000114       8.05000114      37.90799936
H        6.80000019       7.23000050      38.60799821
O        6.73000050       1.09000003      39.30799897
H        6.30000067       1.76000011      38.78799852
H        7.11000013       0.53000003      38.63799890
O       -8.35000038      22.38000107      37.50799974
H       -8.68000031      21.73000145      36.75799974
H       -7.84000015      21.77000046      38.13799890
O        4.95000029       3.65000010      34.81799920
H        4.55000019       2.91000009      34.21799882
H        5.09000015       4.38000011      34.21799882
O        5.15000057       9.28000069      30.57799943
H        4.33000040       9.69000053      30.15799745
H        4.89000034       9.48000050      31.48799928
O       -6.47000027       1.24000001      29.64799913
H       -6.51000023       1.46000016      30.61799844
H       -6.72000027       2.07000017      29.19799836
O       -0.30000001       3.18000031      29.10799821
H        0.23000002       2.43000007      29.50799974
H       -1.25000000       2.93000007      29.20800050
O        8.49000072      11.37000084      37.98799928
H       16.58000183      -3.36000013      38.91799958
H       -8.52000046      10.59000015      37.40799936
O       -1.48000002      15.01000023      28.87799867
H       -0.69000006      14.44000149      29.02800019
H       -1.25999999      15.91000080      29.29799684
O        7.22000074       2.63000011      30.05799897
H        6.47000027       3.22000027      29.95799669
H        8.07000065       3.20000029      29.86800035
O       -9.65000057       1.58000004      33.13799890
H      -10.57000065       1.39999998      33.40799745
H       -9.72000027       2.13000011      32.33799966
O       -0.67000002       8.88000107      33.51799997
H       -1.59000015       8.97000027      33.13799890
H       -0.68000007       8.07000065      34.10800012
O        4.36000013       1.14000010      33.55799897
H        3.91000032       0.67000002      34.30799897
H        3.93000007       1.11000013      32.68799813
O        2.51999998       9.67000103      34.52799829
H       11.12000084      -5.12000036      35.47799905
H        1.69000018       9.27000046      34.27800019
O       -2.58000016       8.56000042      29.75799974
H       -2.00000000       9.38000011      29.72799714
H       -1.94000006       7.80000019      29.73799928
O        6.37000036      16.60000038      31.38799890
H        6.23000050      15.72000027      30.97799714
H       14.36000061       1.96000004      32.25799783
O        8.03000069      17.79000092      37.10800012
H        7.93000031      17.26000023      36.31799920
H        7.19000053      17.96000099      37.55800088
O       -9.81000042       8.18000031      34.56800111
H       -9.09000015       8.40000057      33.96799882
H      -10.64000034       8.67000008      34.17799981
O        1.03000009       6.09000015      39.38799890
H        1.05000007       5.09000015      39.28799852
H        1.88000011       6.31000042      39.84799989
O        4.89000034       9.76000023      33.46799882
H        4.11000013       9.68000031      34.06799730
H        4.95000029      10.69000053      33.16799958
O        7.68000031      -3.80000019      29.79799684
H        8.31999969      -4.47000027      30.22800096
H        7.87000084      -3.87000036      28.78799852
O       11.77000046       8.19000053      29.03799852
H       12.76000023       8.46000004      29.24800142
H       -5.17000008       7.37000036      29.59799989
O       -8.34000015      -0.84000003      32.63799890
H       -9.00000000      -1.46000016      33.11799844
H       -8.52000046       0.06000000      32.96799882
O      -13.13000107       6.51000023      36.04800065
H      -13.39000130       7.52000046      36.18800004
H      -12.63000011       6.44000053      35.20799859
O        3.40000010       8.95000076      36.90799936
H        4.12000036       9.60000038      36.92799791
H        2.79000020       9.12000084      37.61799844
O       -6.96000051      17.80000114      39.17799981
H       -7.81000042      17.95000076      38.69799836
H       -6.35000038      17.42000198      38.46799882
O        9.19000053      15.79000092      32.89799913
H        8.53000069      15.72000027      33.59799989
H        9.81000042      15.07000065      32.79800065
O        3.18000031       3.19000006      28.98799928
H       -4.86000013      16.98000145      29.42799791
H        3.88000011       3.86000013      29.23799928
O        1.12000000      -2.65000010      33.77800019
H       -7.46000051      11.10000038      33.35800012
H       -6.69000053      11.78000069      34.50799974
O        7.44000006       2.58000016      35.64799913
H        6.51000023       2.97000027      35.46799882
H        7.65000057       2.29000020      34.74799951
O        2.47000003      10.38000107      39.05799897
H        2.00000000       9.69000053      39.56800111
H        1.71000004      11.06000042      38.93800004
O        0.91000009       1.06000006      30.05799897
H        0.81000000       0.19000001      29.69799836
H        0.50000000       1.00999999      30.91799958
O        5.98000050       6.75000000      29.44799836
H        6.25000000       7.01000023      28.49799760
H        5.70000076       7.59000063      29.90799745
O       -0.69000006       6.68000031      30.02799638
H       -0.87000006       6.27000046      29.10799821
H       -0.91000009       5.99000025      30.74799760
O       -5.71000051       2.51999998      32.05799897
H       -6.39000034       3.25000024      32.15799745
H       -5.12000036       2.98000002      31.42799791
O       -3.32999992       3.37000012      36.55799897
H       -4.34000015       3.38000035      36.86800035
H       -3.20000029       2.41000009      36.70800050
O       14.42000008      -0.62000000      30.40799745
H       14.00000095      -1.20000005      31.09799989
H       15.22000122      -1.12000000      30.26799806
O        9.14000034       4.47000027      32.71799882
H        8.73000050       5.12000036      32.11799844
H        8.86999989       4.84000015      33.55799897
O        2.50000000      -3.09000015      30.05799897
H        2.86000013      -2.29999995      30.54799875
H        2.88000011      -2.84000015      29.10799821
O       -6.14000034      13.68000031      32.28799852
H       -6.58000040      12.94000053      32.74799760
H       -5.13999987      13.51000023      32.45799859
O       -5.81000042      11.70000076      38.80800088
H       -5.24000072      12.08000088      38.14799913
H       -6.73000050      11.58000088      38.43799813
O       -1.89000010       3.45000029      39.30799897
H       -2.81000018       3.65000010      39.30799897
H       -1.47000003       4.14000034      39.89799913
O       -3.09999990       9.07000065      32.49799951
H       -3.91000032       8.43000031      32.64799913
H       -2.88000011       9.06000042      31.56799730
O        5.18000031      11.03000069      36.82799943
H        5.93000031      11.32000065      36.29799875
H        5.42000055      11.17000103      37.80799897
O       -5.07000017      11.58000088      35.28799852
H       -5.03999996      10.73999977      35.66799958
H       -4.76000023      11.57000065      34.37799867
O        4.89000034      11.52000046      39.24799951
H        4.85000038      12.25000000      39.94799836
H        4.01999998      10.91000080      39.29799875
O       -7.62000036       9.26000023      32.95800050
H       -7.69000053       9.30000114      31.95799859
H       -6.84000015       8.73000050      33.02800019
O       -3.21000004      18.93000031      30.07799943
H       -3.75000024      19.15000153      30.87799867
H       -3.09000015      19.92000198      29.76799806
O       -5.10000038       6.44000053      35.24799760
H       -4.24000025       5.89000034      35.06799920
H       -5.91000032       5.90000057      35.22800096
O        1.65000010       4.89000034      35.39799913
H        2.41000009       5.46000004      35.66799958
H        1.45000005       4.31000042      36.13799890
O       -1.17000008       4.76000023      31.95799859
H       -0.36000001       4.58000040      32.45799859
H       -1.37000012       3.88000011      31.56799730
O       -2.86000013       5.24000072      34.62799867
H       -2.86000013       4.61999989      35.41799768
H       -2.63000011       4.57000017      33.91799958
O       -4.85000038      17.20000076      37.20800050
H       -4.61000013      17.51000023      36.34799989
H       -4.63000011      16.20000076      37.18799813
O        7.22000074      10.47000027      29.32799943
H      -10.58000088      10.32999992      29.79799684
H        7.59000063      11.34000015      29.57799943
O       -8.59000015       9.22000027      36.57799943
H       -7.62000036       9.15000057      36.38799890
H       -9.15000057       8.86000061      35.83799775
O        5.00000000      -1.25000000      30.24799760
H        5.80000019      -1.28000009      29.66799958
H        5.29000044      -1.89000010      30.87799867
O        3.75000024       0.23000002      35.99799951
H        4.45000029      -0.47000003      36.04800065
H        2.91000009      -0.28000000      35.95800050
O       -2.79000020       0.75000000      36.68800004
H       -2.53000021       0.75000000      37.72800096
H       -3.45000029       0.01000000      36.53800042
Pt       1.70000005       0.78000003      26.68800004
Pt       4.54000044       0.57000005      26.75799974
Pt       7.33000040       0.72000003      26.68800004
Pt      10.03000069       0.69999999      26.70799669
Pt      12.84000015       0.73000008      26.63799699
Pt      15.75000000       0.65000004      26.62799867
Pt       3.12000012       3.15000033      26.79799684
Pt       5.88000011       3.27000022      26.83799775
Pt       8.71000099       3.12000012      26.61800035
Pt      11.51000023       3.13000011      26.67800172
Pt      14.25000095       3.24000001      26.64799913
Pt       0.21000001       3.23000002      26.85799821
Pt       4.42000008       5.76000023      26.74800142
Pt       7.27000046       5.68000031      26.74800142
Pt       9.97000027       5.62000036      26.62799867
Pt      12.80000114       5.58000040      26.60799821
Pt      -1.14000010       5.62000036      26.79799684
Pt       1.61000013       5.64000034      27.02800019
Pt       5.78000021       8.20000076      26.62799867
Pt       8.59000015       8.06000042      26.89799913
Pt      11.47999954       8.03000069      26.77800019
Pt      -2.60000014       7.95000029      26.69799836
Pt       0.24000001       7.99000025      26.81800111
Pt       3.04000020       8.07999992      26.77800019
Pt       7.30999994      10.53999996      26.87799867
Pt      10.15000153      10.52000046      26.78799852
Pt      -3.96000028      10.53999996      26.75799974
Pt      -1.14000010      10.39000034      26.67800172
Pt       1.59000015      10.45000076      26.74800142
Pt       4.45000029      10.42000008      26.82799943
Pt       8.78000069      12.98999977      26.69799836
Pt      -5.35000038      12.98000145      26.86799653
Pt      -2.56000018      12.86000061      26.73799928
Pt       0.32000002      12.78000069      26.73799928
Pt       3.12000012      12.88000107      26.84799989
Pt       5.93000031      12.98000145      26.80799897
Pt       0.23000002       1.50000000      24.38800081
Pt       3.14000010       1.61000013      24.45800050
Pt       5.90000057       1.57000005      24.52800019
Pt       8.63000011       1.35000002      24.26799806
Pt      11.58000088       1.48000002      24.35799821
Pt      14.34000015       1.57000005      24.33799775
Pt       1.58000004       3.99000025      24.60799821
Pt       4.46000004       4.01000023      24.46799882
Pt       7.25000000       4.05000019      24.33799775
Pt      10.02000046       3.95000005      24.27800019
Pt      12.84000015       3.99000025      24.30799897
Pt      -1.19000006       3.96000028      24.43799623
Pt       2.96000004       6.39000034      24.48799928
Pt       5.77000046       6.47000027      24.37799867
Pt       8.57999992       6.47000027      24.41799958
Pt      11.40000153       6.42000008      24.45800050
Pt      -2.50000000       6.34000015      24.37799867
Pt       0.28000000       6.38000011      24.48799928
Pt       4.32000017       8.85000038      24.35799821
Pt       7.19000053       8.92000008      24.47800096
Pt       9.98000050       8.82000065      24.54800065
Pt      -3.94000030       8.92000008      24.47800096
Pt      -1.16000009       8.73999977      24.36799653
Pt       1.57000005       8.78000069      24.31800111
Pt       5.89000034      11.21000099      24.58799775
Pt       8.53999996      11.36000061      24.47800096
Pt      -5.48000050      11.26000023      24.46799882
Pt      -2.58000016      11.30000019      24.43799623
Pt       0.21000001      11.19000053      24.28799852
Pt       3.02999997      11.24000072      24.46799882
Pt       7.26000023      13.76000023      24.30799897
Pt      -6.75000000      13.75000095      24.41799958
Pt      -4.03000021      13.78000069      24.44799836
Pt      -1.19000006      13.60000038      24.43799623
Pt       1.63000000      13.63000011      24.32799943
Pt       4.46000004      13.64000130      24.41799958
Pt      -8.27000046      14.47000027      22.13800081
Pt      -5.43000031      14.55000019      22.24799760
Pt      -2.58000016      14.47000027      22.13800081
Pt       0.17000002      14.42000008      22.10799821
Pt       2.96000004      14.47000027      22.06800111
Pt       5.79000044      14.56999969      22.04799684
Pt       1.60000014       2.43000007      22.15799745
Pt       4.40000010       2.41000009      22.16799958
Pt       7.18000031       2.39000010      22.07799943
Pt      10.06000042       2.19000006      22.05799897
Pt      12.90000057       2.33000016      21.99800142
Pt      -1.16000009       2.33000016      22.14799913
Pt       3.09000015       4.81000042      22.21799882
Pt       5.81000042       4.84000015      22.10799821
Pt       8.71000099       4.84000015      22.02800019
Pt      11.43000031       4.73000002      22.06800111
Pt      -2.58000016       4.71000004      22.09799989
Pt       0.25000000       4.76000023      22.09799989
Pt       4.40000010       7.26000023      22.16799958
Pt       7.22000074       7.21000004      22.12799867
Pt      10.05000019       7.32000065      22.20800050
Pt      -4.07000017       7.21000004      22.12799867
Pt      -1.14000010       7.17000008      22.06800111
Pt       1.59000015       7.14000034      22.10799821
Pt       5.80000019       9.72000027      22.09799989
Pt       8.64000034       9.58000088      22.22799714
Pt      -5.47000027       9.64000034      22.23799928
Pt      -2.55000019       9.55000019      22.23799928
Pt       0.32000002       9.56000042      22.02800019
Pt       2.99000025       9.69000053      22.02800019
Pt       7.16000032      12.13000107      22.10799821
Pt      -6.89000034      12.04000092      22.25799974
Pt      -3.99000025      12.05000019      22.16799958
Pt      -1.25000000      12.03000069      22.14799913
Pt       1.56000006      12.08000088      22.02800019
Pt       4.36000013      12.14000130      22.11799653
Pt       1.58000004       0.73000008      19.95000041
Pt       4.46000004       0.62000000      19.94000054
Pt       7.19000053       0.64000005      19.80000043
Pt       9.93000031       0.72000003      19.76000047
Pt      12.72000122       0.65000004      19.74000049
Pt      15.58000088       0.69999999      19.78000045
Pt       3.06000018       3.11000013      19.79000044
Pt       5.76000023       3.13000011      19.78000045
Pt       8.46000004       3.18000031      19.76000047
Pt      11.34000015       3.07000017      19.77000046
Pt      14.15000057       3.08000040      19.71000052
Pt       0.18000001       3.07000017      19.80000043
Pt       4.38000011       5.56000042      19.87000037
Pt       7.18000031       5.73000002      19.86000050
Pt       9.92000008       5.65000010      19.79000044
Pt      12.68000031       5.52000046      19.77000046
Pt      -1.22000003       5.51000023      19.83000052
Pt       1.71000004       5.45000029      19.84000040
Pt       5.76000023       8.09000015      19.82000041
Pt       8.59000015       8.06000042      19.83000052
Pt      11.42000103       8.03000069      19.86000050
Pt      -2.71000028       7.90999985      19.82000041
Pt       0.18000001       7.92000055      19.82000041
Pt       3.04000020       8.02000046      19.77000046
Pt       7.15000057      10.48999977      19.89000047
Pt       9.96000099      10.45000076      19.93000043
Pt      -4.03000021      10.39000034      19.89000047
Pt      -1.24000001      10.34000015      19.78000045
Pt       1.50000000      10.44000053      19.66000057
Pt       4.31000042      10.48000145      19.81000042
Pt       8.53999996      12.92000008      19.83000052
Pt      -5.48000050      12.82000065      20.02000046
Pt      -2.62000036      12.80000114      19.86000050
Pt       0.07000000      12.80000114      19.77000046
Pt       2.83000016      12.94000053      19.67000032
Pt       5.68000031      12.93000126      19.74000049
Pt       0.13000000       1.41000009      17.34000016
Pt       3.04000020       1.47000003      17.60000015
Pt       5.85000038       1.56000006      17.53000021
Pt       8.50000000       1.51000011      17.52000046
Pt      11.29000092       1.54000020      17.44000054
Pt      14.14000034       1.54000020      17.49000049
Pt       1.49000001       3.80000019      17.49000049
Pt       4.26999998       3.92000008      17.43000031
Pt       7.17000008       4.06000042      17.44000054
Pt       9.92000008       4.00000000      17.46000028
Pt      12.72999954       3.95000005      17.40000034
Pt      -1.20000005       3.82000017      17.56000042
Pt       2.90000010       6.32999992      17.45000029
Pt       5.76000023       6.55000019      17.59000040
Pt       8.47000027       6.47000027      17.40000034
Pt      11.29000092       6.49000072      17.57000018
Pt      -2.67000008       6.28000021      17.49000049
Pt       0.14000000       6.26000023      17.52000046
Pt       4.38000011       8.80000019      17.39000035
Pt       7.18000031       8.95000076      17.47000027
Pt      10.01000023       8.99000072      17.49000049
Pt      -4.07000017       8.75000095      17.40000034
Pt      -1.25999999       8.64000034      17.46000028
Pt       1.58000004       8.77000046      17.52000046
Pt       5.71000051      11.28000069      17.58000040
Pt       8.53999996      11.32999992      17.60000015
Pt      -5.47000027      11.19000053      17.72000051
Pt      -2.65000010      11.13000011      17.51000047
Pt       0.12000000      11.14999962      17.38000036
Pt       2.93000007      11.19000053      17.45000029
Pt       7.05000019      13.70000076      17.46000028
Pt      -6.86000061      13.68000031      17.58000040
Pt      -4.11000013      13.69000053      17.66000033
Pt      -1.26999998      13.53000069      17.48000026
Pt       1.39999998      13.64000130      17.47000027
Pt       4.18000031      13.73000050      17.44000054
Pt      -8.55000019      14.49000168      15.13000012
Pt      -5.52000046      14.39000034      15.26999999
Pt      -2.78000021      14.46000099      15.29000044
Pt       0.13000000      14.40000057      15.16000033
Pt       2.79000020      14.48000050      15.11000061
Pt       5.57000065      14.49000168      15.07000018
Pt       1.58000004       2.28000021      15.19000006
Pt       4.44000053       2.25000000      15.21000004
Pt       7.21000004       2.30999994      15.16000033
Pt       9.88000011       2.28000021      15.20000029
Pt      12.77000046       2.29999995      15.00000000
Pt      -1.39999998       2.34000015      15.13999987
Pt       2.91000009       4.61999989      15.13000012
Pt       5.66000032       4.87000036      15.26999999
Pt       8.50000000       4.87000036      15.01000023
Pt      11.22000122       4.72000027      15.29000044
Pt      -2.65000010       4.75000000      15.18000031
Pt       0.17000002       4.76000023      15.18000031
Pt       4.19000053       7.16000032      15.06000042
Pt       6.98000002       7.25000000      15.01000023
Pt       9.78000069       7.22000074      15.03000021
Pt      -4.17000008       7.15000057      15.22000027
Pt      -1.37000012       7.18000031      15.13000012
Pt       1.45000005       7.13000059      15.26000023
Pt       5.65000010       9.63000107      15.13000012
Pt       8.42000103       9.64000034      15.13999987
Pt      -5.66000032       9.55000019      15.15000058
Pt      -2.76000023       9.53000069      15.26999999
Pt       0.07000000       9.54000092      15.09000016
Pt       2.92000031       9.54000092      15.09000016
Pt       7.00000048      12.02000046      15.15000058
Pt      -7.06000042      12.08000088      15.35000039
Pt      -4.26999998      12.00000000      15.27999974
Pt      -1.36000013      11.88000107      15.06000042
Pt       1.51000011      11.97000027      15.11000061
Pt       4.30000019      12.01000118      15.19000006
