510
Lattice="16.869 0.0 0.0 -8.434499999999996 14.608982536439697 0.0 0.0 0.0 71.47800000000001" Properties=species:S:1:pos:R:3 pbc="T T T"
O       12.37000084     -28.10000229      39.24799902
H       12.79000092     -27.55000114      40.02799780
H       12.70000076     -27.62000084      38.46800025
O      -17.69000053       2.96000004      33.71799834
H      -17.93000031       2.90000010      34.71800025
H      -18.09000206       2.07000017      33.34799750
O      -42.58000183     -29.67000198      37.84799941
H      -42.34000397     -29.70000076      36.88799841
H      -43.27000046     -29.01000023      37.85799773
O      -14.74000072     -19.00000000      37.71799834
H      -15.53000069     -19.30000114      37.26799757
H      -14.39000034     -18.13000107      37.33799727
O       -7.85000038     -16.69000053      29.97799857
H       -8.03000069     -17.59000015      29.60799963
H       -8.26000023     -16.03000069      29.32800086
O        5.38000059      21.33000183      34.56799872
H        4.99000025      22.22000122      34.29799826
H        4.65000057      20.88999939      35.02799780
O      -19.15000153      22.79000092      29.18799765
H      -19.44000053      23.71000099      29.50799735
H      -19.60000038      21.99000168      29.66799719
O       -1.19000006     -10.14000034      35.86799986
H       -0.40000004     -10.73999977      35.84799750
H       -0.96000004      -9.40000057      35.22799857
O      -17.38000107      38.76000214      33.88799841
H      -18.12000084      38.44000244      33.38799841
H       -0.86000001      39.68000031      34.15799887
O       -3.62000012       9.42000008      37.63800032
H      -11.18000031      23.82000160      38.08799918
H       -4.18000031       8.63000011      37.53799994
O        5.69000006      12.98999977      29.16799719
H        5.53999996      12.00000000      29.43799765
H        4.82999992      13.53000069      29.39800055
O      -22.44000244      -0.48000002      33.20799811
H      -22.10000038      -0.47000003      32.30799658
H      -22.13999939      -1.31999993      33.58799727
O       -6.25000000       5.11000061      32.62799819
H       -5.40000010       4.59000015      32.38799841
H       -5.93000031       5.84000063      33.26799948
O      -37.64000320      32.01000214      36.83799918
H      -37.90999985      31.56000137      36.04799826
H      -36.71000290      31.80000114      36.98799880
O      -20.03000069      11.71000004      32.35799963
H      -29.22000122      26.20000076      31.71799643
H      -20.10000038      10.91000080      32.93799956
O      -39.44000244      14.21000099      31.12800009
H      -38.63000107      14.70000076      30.85799773
H      -40.13000107      14.78000069      30.63799841
O      -14.69000053      -3.01000023      35.02799780
H      -15.51000118      -3.02999997      35.61799796
H      -14.67000103      -2.20000005      34.39799864
O      -30.12000084      11.45000076      33.84799750
H      -29.42000198      10.91000080      33.43799956
H      -30.93000221      10.90000057      33.68799765
O        2.86999989      -6.92000008      36.84799941
H        2.94000006      -7.90999985      37.04800017
H        1.99000013      -6.77000046      37.22799857
O      -54.78000259     -10.98000050      35.02799780
H      -37.58000183     -10.71000099      35.97799857
H      -37.22000122     -10.81999969      34.32799895
O       -8.64000034      23.88000107      36.59799941
H       -8.86999989      24.11000061      35.67799933
H       -9.15000057      24.53000069      37.18799956
O        0.84000003      -5.29000044      30.27799780
H        0.45000002      -5.98000050      30.79799826
H        0.74000001      -5.53000021      29.32800086
O      -26.29000092      17.42000198      36.56799872
H      -26.16000175      18.16000175      37.22799857
H      -25.53000259      16.85000038      36.68799956
O        6.05000019       3.87000036      33.03799994
H        6.93000031       3.82000017      33.40799887
H        5.90000057       4.80000019      32.77799971
O       25.35000038       7.76999998      37.28799994
H       24.75000191       8.56000042      37.11799986
H       25.07000160       7.39000034      38.21799834
O       38.18000031       5.46000004      29.92799933
H       37.29000092       5.03000021      29.93799765
H       38.80000305       4.71000004      30.01799948
O      -19.92000198      36.76000214      30.50800116
H      -20.54000092      37.49000168      30.24799902
H      -19.03000069      37.12000275      30.54799826
O       11.17000103       5.20000029      37.41799910
H       10.51000023       5.13000011      38.13799841
H       11.84000015       4.53000021      37.54799826
O       16.47000122      -2.21000004      32.83799918
H       16.75000000      -2.09000015      31.91799910
H       17.21000099      -1.89000010      33.37799819
O       12.06999969      -0.57000005      30.27799780
H       11.43000031      -1.25000000      30.14800055
H       11.67000008       0.32000002      30.15799887
O        4.67000008      -5.36999989      34.09799941
H        3.74000025      -5.36000013      33.62800009
H        4.36000013      -5.20000029      35.02799780
O       -7.07000017      -7.19000053      30.38799841
H       -6.83000040      -7.45000076      29.44799597
H       -7.72000027      -6.37000036      30.19799597
O       38.10000229     -22.90000153      38.73799880
H       38.06999969     -22.28000259      37.96800025
H       38.97000122     -22.58000183      39.18799956
O       10.30000114     -11.67000008      36.73799880
H        2.33000016       2.24000001      36.26799948
H       10.43000126     -10.92000008      36.12800009
O      -28.40000153      33.20000076      37.66799719
H      -10.75000000      33.46000290      37.13799841
H      -28.65000153      34.04000092      38.11799796
O       26.92000198     -10.69000053      33.20799811
H       26.17000198     -11.28000069      33.41799719
H       27.72000122     -11.04000092      33.51799757
O        2.07000017       9.34000015      33.24799902
H        1.11000013       9.12000084      33.39800055
H        2.56000018       8.69000053      33.75799925
O      -17.83000183      12.02000046      30.71799834
H      -16.86000061      12.05000019      30.85799773
H      -18.25000000      12.09000111      31.59799941
O        2.18000007      -4.87000036      33.20799811
H        1.92000008      -4.46000004      32.35799963
H        2.00999999      -4.03000021      33.88799841
O      -19.54000092      -1.00000000      38.80799849
H      -20.14000130      -0.27000001      39.05800040
H      -20.12000084      -1.73000002      39.01799948
O       -5.00000000      -7.20000029      34.45799811
H       -5.59999990      -7.86000013      34.90799696
H       -4.43000031      -6.85000038      35.23800070
O      -24.00000000      45.95000458      39.58799918
H      -23.66000175      46.38000107      38.80799849
H      -23.33000183      46.04999924      40.27799971
O      -15.32000065     -14.44000149      39.76799757
H      -14.55000019     -13.96000004      39.35799963
H      -15.91000080     -14.61999989      38.96799834
O       15.28000069      29.82000160      30.18799765
H       23.60000229      15.06000042      31.16799910
H       -2.01999998      29.03000069      29.81799872
O        1.41000009     -11.80000114      36.09799941
H        1.30000007     -11.50000095      35.13799841
H        1.88000011     -11.16000080      36.60799773
O        0.28000000      17.92000008      33.55799658
H        0.83000004      18.45000076      32.94799979
H        0.04000000      17.00000000      33.24799902
O      -25.19000053       4.50000000      29.93799765
H      -24.82999992       4.11000013      29.09799750
H      -24.98000145       5.46000004      29.79799826
O      -14.64000130      -0.87000006      33.64799864
H      -14.41000080      -0.74000001      32.67799933
H      -14.13000107      -0.16000001      34.03799803
O       -9.10000038      -5.46000004      29.96799643
H       -9.51000023      -4.57000017      30.04799826
H       -9.31000042      -5.67000008      28.96800025
O        3.53000021      -2.79999995      30.36799796
H        2.72000027      -2.26000023      30.30800040
H        3.30000019      -3.66000032      29.93799765
O       -1.23000002      11.44000053      38.18799765
H       -1.03999996      12.39999962      37.99799712
H       -0.50000000      11.14000130      38.74799902
O       27.46000099      14.41000080      39.03799803
H       27.13000107      15.34000015      39.17799742
H       28.29000282      14.30000114      39.65799887
O       21.10000229      49.09000397      29.31799872
H       21.62000275      49.81000519      29.84799750
H       21.60000038      48.20000076      29.36799796
O      -29.33000183     -11.45000076      32.08799918
H      -29.65000153     -11.93000031      31.29799826
H      -28.56000137     -10.92000008      31.81799872
O      -23.22000122       7.20000029      34.35799963
H      -22.91000175       7.35000038      35.27799971
H      -14.97000122      -6.53000069      34.07799704
O      -11.98999977       0.98000002      29.91799719
H      -11.63000107       1.85000002      29.77799780
H      -11.47000122       0.36000001      29.39800055
O      -13.36999989      23.97999954      29.81799872
H      -14.25000095      23.71000099      30.21800025
H      -13.39000130      23.69000244      28.85799582
O        7.59000063      21.33000183      36.02799971
H        6.78999996      21.56000137      35.48799880
H       16.30000114       7.61000061      36.39799864
O        0.17000002      16.03000069      29.74799902
H       -0.47000003      16.72000122      29.81799872
H       -0.05000000      15.48000145      28.93799765
O       25.33000183      12.01000118      36.58799918
H       24.51000214      12.48000050      36.47799857
H       25.63000107      12.04000092      37.54799826
O       -1.88000011       0.48000002      32.86799796
H       -2.71000028       0.83000004      33.29800017
H       -1.61000013      -0.30000001      33.40799887
O       14.42000008      -4.09000015      32.80800040
H       15.19000053      -3.49000001      32.94799979
H       14.93000031      -4.95000029      32.69799788
O      -29.34000206      28.70000076      37.47799857
H      -30.25000000      28.68000031      37.75799735
H      -29.20000076      27.76000023      36.97799857
O        6.68000031       9.76000023      36.88799841
H        6.51000023       9.80000019      37.90799887
H        7.29000044      10.53999996      36.64799674
O       -3.42000008      -8.17000008      32.53799803
H      -12.57999992       6.65999985      33.15799887
H       -3.87000036      -8.39000034      31.64799674
O       19.44000053      12.32000160      36.35799963
H       19.90000153      12.16000080      35.46800025
H       18.81000137      12.97000027      36.00799925
O        6.24000025       9.81000042      39.44799979
H        6.82000065      10.62000084      39.68799956
H        5.27999973       9.95000076      39.61799986
O       24.94000244       0.82000005      32.93799956
H       24.13000107       0.32000002      32.99799712
H       25.18000031       0.74000001      32.02799780
O       14.89000130      37.88000107      39.84799941
H       14.63000107      36.95999908      39.75799925
H       15.79000092      37.92000198      40.30800040
O      -40.38000107      26.75000191      30.25799735
H      -40.49000168      26.77000046      29.25800116
H      -39.98000336      25.84000015      30.30800040
O       -0.29000002       4.85000038      30.01799948
H       -0.28000000       5.66000032      29.58799918
H       -0.80000007       5.03000021      30.80799849
O      -28.52000237      19.84000015      39.63799841
H      -28.19000244      19.59000015      40.54799826
H      -29.25000191      20.47000122      39.75799925
O       14.32000065     -26.06000137      29.64799674
H       14.26000118     -27.02000046      29.75799735
H       15.22000122     -25.71000099      29.52799780
O      -13.06000137      30.11000061      35.17799933
H      -12.77000046      29.86000061      36.03799994
H      -12.65999985      31.11000061      35.08799918
O       11.40999985      24.20000076      30.83799918
H       10.91000080      24.09000206      31.69799979
H       11.06999969      23.49000168      30.28799994
O        7.89000034       6.59000015      34.72799857
H        7.90000010       7.06000042      35.55799849
H        8.86999989       6.42000008      34.53799803
O       35.37000275       5.40999985      35.35799773
H       35.29000092       5.05000019      34.40799887
H       34.68000031       6.07000065      35.45799811
O       -7.01000023      41.01000214      39.04799826
H       -6.37000036      40.37000275      39.37799819
H       -6.54000044      41.90000153      39.05800040
O       -3.76000023     -17.54000092      36.18799765
H       -3.63000011     -18.28000069      36.83799918
H       -4.75000000     -17.65000153      35.84799750
O        5.35000038      10.59000015      30.13799841
H        4.43000031      10.27000046      30.39799674
H        5.82999992      10.58000088      31.00799925
O      -32.38000107      20.08000183      39.79799826
H      -32.26000214      19.28000069      40.30800040
H      -32.05000305      20.80000114      40.33799918
O      -28.09000015      -0.40000004      33.59799941
H      -28.79000092      -0.06000000      34.15799887
H      -28.46000290      -1.24000001      33.17799933
O       14.94000053     -24.33000183      32.14800055
H       14.41000080     -23.63000107      32.57799895
H       15.28000069     -24.79999924      32.90799887
O      -27.76000023      13.03000069      35.91799719
H      -28.30000114      12.35000038      35.46800025
H      -28.40999985      13.43000031      36.55800040
O       -9.61000061       8.22000027      32.39799864
H       -9.18000031       7.82000065      33.25799735
H      -10.39000034       7.61000061      32.35799963
O       -1.39000010      20.90000153      39.92799933
H       -0.79000002      21.44000053      40.50799925
H       -0.78000003      20.24000168      39.50799735
O       14.64000130      18.00000000      30.31799872
H       14.56999969      17.98000145      31.30799849
H       15.48999977      18.56000137      30.11799796
O        0.88999999      14.67000103      35.25799735
H        0.90000004      14.77000141      34.29799826
H        1.18000007      15.53999996      35.56799872
O      -10.77000046       1.39999998      38.51799757
H      -11.44000053       0.74000001      38.29800017
H      -10.78000069       2.35000014      38.15799887
O       10.27000046      35.93000031      30.35799963
H       11.02000046      35.60000229      29.72799857
H       10.24000072      35.39000320      31.22799857
O       12.96000004     -27.81999969      34.26799948
H       12.87000084     -27.11000252      33.52799971
H       12.36000061     -28.57000160      33.95800002
O       -4.24000025      23.05000114      36.77799780
H       -3.46000004      23.61000061      36.99799902
H       -5.03999996      23.57000160      37.02799780
O       -6.08000040      18.34000015      30.49799902
H       -6.94000006      18.76000023      30.20799811
H       -6.28000021      18.29000092      31.46799834
O        1.24000001       1.23000002      29.74799902
H      -16.62000084       1.14000010      29.82799704
H        1.54999995       2.09000015      30.07800086
O       -9.56000042      26.51000023      35.28799803
H      -10.53000069      26.35000229      35.55799849
H       -9.49000072      27.45000076      34.90799696
O       16.04000092     -24.26000214      37.96800025
H       15.14000034     -24.23000145      38.28799803
H       16.02000046     -23.51000023      37.32799895
O      -14.06000042      16.50000000      29.77799780
H      -13.87000084      16.48999977      28.82800086
H      -14.99000072      16.60000038      29.75799735
O       -2.76000023      12.96000004      29.09799750
H       -3.53999996      12.55000114      29.49799902
H       -1.92000008      12.63000011      29.42799933
Pt       1.48000002       0.90000004      26.99799902
Pt       4.36000013       0.94000006      26.89800055
Pt       7.24000025       0.63000000      26.79799826
Pt      10.03000069       0.73000008      26.66799719
Pt      12.82000065       0.97000003      26.97799857
Pt      15.59000015       0.88000005      26.83799918
Pt       2.91000009       3.32000017      27.04799826
Pt       5.86999989       3.29000020      26.78799613
Pt       8.55000019       3.19000006      26.87799628
Pt      11.31000042       3.28000021      26.70799811
Pt      14.22000027       3.34000015      26.77799780
Pt       0.14000000       3.21000004      26.82800086
Pt       4.41000032       5.64000034      27.04799826
Pt       7.17000008       5.64000034      26.80799658
Pt       9.87000084       5.62000036      26.81799872
Pt      12.75000095       5.71000051      27.07799704
Pt      -1.19000006       5.66000032      26.84799750
Pt       1.66000009       5.59999990      27.07799704
Pt       5.77000046       8.12000084      26.99799902
Pt       8.55000019       8.11000061      26.88799841
Pt      11.27000046       8.01000023      27.01799567
Pt      -2.59000015       8.07000065      26.96800025
Pt       0.14000000       8.10000038      27.04799826
Pt       2.92000031       8.06000042      27.02799780
Pt       6.99000072      10.64000034      26.75800116
Pt      10.01000023      10.45000076      26.89800055
Pt      -4.10000038      10.31000042      27.01799567
Pt      -1.31999993      10.53000069      26.95799811
Pt       1.45000005      10.46000004      26.94799597
Pt       4.21000051      10.57000065      26.89800055
Pt       8.46000004      13.08000088      26.78799613
Pt      -5.59000015      13.10000038      26.89800055
Pt      -2.79999995      12.97000027      26.87799628
Pt       0.16000001      12.90000057      26.76799948
Pt       2.86000013      12.93000126      26.99799902
Pt       5.75000048      12.96000004      27.00799735
Pt       0.31000000       1.49000001      24.59799750
Pt       3.06000018       1.60000014      24.55800040
Pt       5.84000063       1.29000008      24.56799872
Pt       8.61000061       1.37000012      24.53799994
Pt      11.52999973       1.58000004      24.47799857
Pt      14.35000038       1.54999995      24.53799994
Pt       1.70000005       4.14000034      24.62800009
Pt       4.38000011       4.05000019      24.54799826
Pt       7.11000013       3.86000013      24.40799887
Pt       9.96000099       3.99000025      24.42799933
Pt      12.83000088       3.94000030      24.48800070
Pt      -1.14999998       4.05000019      24.42799933
Pt       3.06000018       6.54000044      24.66799719
Pt       5.82999992       6.41000032      24.58799918
Pt       8.57999992       6.39000034      24.49799902
Pt      11.44000053       6.39000034      24.57799704
Pt      -2.61000013       6.34000015      24.61799796
Pt       0.29000002       6.51000023      24.55800040
Pt       4.48000002       8.86000061      24.62800009
Pt       7.17000008       8.90999985      24.56799872
Pt      10.09000015       8.82000065      24.64799674
Pt      -4.03999996       8.73999977      24.60799963
Pt      -1.20000005       8.84000015      24.50799735
Pt       1.68000007       8.88000107      24.53799994
Pt       5.80000019      11.40999985      24.40799887
Pt       8.67000008      11.30000019      24.55800040
Pt      -5.39000034      11.28000069      24.57799704
Pt      -2.65000010      11.21000099      24.57799704
Pt       0.22000001      11.24000072      24.45799811
Pt       3.08000040      11.31000042      24.62800009
Pt       7.27000046      13.73000050      24.50799735
Pt      -6.78000021      13.73000050      24.59799750
Pt      -3.99000025      13.62000084      24.57799704
Pt      -1.22000003      13.55000019      24.44799597
Pt       1.76000011      13.61000061      24.45799811
Pt       4.57000017      13.85000134      24.67799933
Pt      -8.24000072      14.54000092      22.26799567
Pt      -5.44000053      14.56000137      22.28799994
Pt      -2.56000018      14.43000031      22.24799902
Pt       0.14000000      14.37000084      22.15799887
Pt       2.98000002      14.47000027      22.15799887
Pt       5.73999977      14.56999969      22.11799796
Pt       1.60000014       2.44000006      22.26799567
Pt       4.45000029       2.39000010      22.19799597
Pt       7.21000004       2.34000015      22.12799628
Pt       9.99000072       2.16000009      22.17799933
Pt      12.85000038       2.28000021      22.12799628
Pt      -1.17000008       2.34000015      22.10799963
Pt       3.06000018       4.82999992      22.25799735
Pt       5.84000063       4.79000044      22.23799689
Pt       8.75000095       4.71000004      22.09799750
Pt      11.38000011       4.72000027      22.15799887
Pt      -2.70000005       4.73000002      22.21800025
Pt       0.28000000       4.79000044      22.20799811
Pt       4.39000034       7.30999994      22.22799857
Pt       7.23000050       7.15000057      22.23799689
Pt       9.97000027       7.26000023      22.28799994
Pt      -4.10000038       7.15000057      22.21800025
Pt      -1.19000006       7.18000031      22.11799796
Pt       1.60000014       7.19000053      22.31799872
Pt       5.81000042       9.64000034      22.15799887
Pt       8.64000034       9.64000034      22.33799918
Pt      -5.38000059       9.68000031      22.32799704
Pt      -2.59000015       9.56999969      22.28799994
Pt       0.34999999       9.60000038      22.12799628
Pt       3.02000022       9.68000031      22.16799719
Pt       7.18000031      12.16000080      22.19799597
Pt      -6.92000008      12.13000107      22.32799704
Pt      -4.03999996      12.08000088      22.20799811
Pt      -1.19000006      11.97000027      22.15799887
Pt       1.56000006      12.06999969      22.08799918
Pt       4.34000015      12.20000076      22.19799597
Pt       1.60000014       0.73000008      20.06999987
Pt       4.44000053       0.61000001      20.01999998
Pt       7.23000050       0.69000006      19.87999987
Pt      10.01000023       0.71000004      19.76999986
Pt      12.83000088       0.67000002      19.75999987
Pt      15.56000137       0.72000003      19.82999992
Pt       2.97000027       3.05000019      19.90999996
Pt       5.72000027       3.14000010      19.87999987
Pt       8.53999996       3.19000006      19.85999989
Pt      11.35000134       3.16000009      19.89999985
Pt      14.17000008       3.11000013      19.79999995
Pt       0.16000001       3.09999990      19.80999994
Pt       4.36999989       5.59000015      19.85999989
Pt       7.22000074       5.68000031      19.90999996
Pt       9.95000076       5.61000061      19.83999991
Pt      12.72999954       5.52000046      19.88999986
Pt      -1.22000003       5.56000042      19.90999996
Pt       1.61000013       5.49000025      19.93999994
Pt       5.82999992       8.02000046      19.89999985
Pt       8.64000034       8.06000042      19.91999984
Pt      11.38000011       8.02000046      19.96999991
Pt      -2.69000030       7.97000027      19.91999984
Pt       0.17000002       7.95000029      19.81999993
Pt       2.96000004       8.03000069      19.84999990
Pt       7.15000057      10.48000145      19.94999981
Pt      10.03000069      10.40000057      20.06999987
Pt      -3.95000005      10.38000107      19.94999981
Pt      -1.25000000      10.34000015      19.82999992
Pt       1.48000002      10.48000145      19.75999987
Pt       4.34000015      10.43000126      19.87999987
Pt       8.57999992      12.92000008      19.91999984
Pt      -5.52000046      12.82000065      20.12999993
Pt      -2.66000009      12.79000092      19.87999987
Pt       0.05000000      12.80000114      19.74999976
Pt       2.82000017      12.98000145      19.71999991
Pt       5.73000002      12.90999985      19.82999992
Pt       0.15000001       1.39999998      17.65999984
Pt       3.00000000       1.39999998      17.80999970
Pt       5.68000031       1.48000002      17.61999988
Pt       8.46000004       1.50000000      17.50999975
Pt      11.32999992       1.50000000      17.58999991
Pt      14.23000145       1.51000011      17.44999957
Pt       1.60000014       3.97000027      17.56999993
Pt       4.32000017       4.00000000      17.60999965
Pt       7.16000032       4.01000023      17.56999993
Pt      10.01000023       3.97000027      17.54999971
Pt      12.67000103       3.86000013      17.52999973
Pt      -1.33000004       4.01000023      17.48999977
Pt       2.81000018       6.40000057      17.68999982
Pt       5.80000019       6.47000027      17.67999959
Pt       8.57999992       6.48000002      17.55999970
Pt      11.38000011       6.38000011      17.51999998
Pt      -2.72000027       6.36000061      17.64999962
Pt       0.14000000       6.32000017      17.42999983
Pt       4.31000042       8.82999992      17.55999970
Pt       7.17000008       8.86000061      17.56999993
Pt       9.93000031       8.82000065      17.56999993
Pt      -4.21000051       8.80000019      17.64999962
Pt      -1.43000007       8.85000038      17.58999991
Pt       1.53000009       8.90000057      17.52999973
Pt       5.66000032      11.27000046      17.64999962
Pt       8.51000023      11.24000072      17.59999990
Pt      -5.57000065      11.24000072      17.75999975
Pt      -2.78000021      11.13000011      17.41999960
Pt      -0.01000000      11.18000031      17.47999978
Pt       2.94000006      11.38000011      17.55999970
Pt       7.14000034      13.70000076      17.61999988
Pt      -6.87000036      13.62000084      17.77999973
Pt      -4.11000013      13.56000042      17.60999965
Pt      -1.45000005      13.51000023      17.45999980
Pt       1.42000008      13.73000050      17.43999982
Pt       4.20000029      13.70000076      17.37999963
Pt      -8.44000053      14.56999969      15.40999984
Pt      -5.59000015      14.55000019      15.36999988
Pt      -2.85000038      14.49000168      15.23000002
Pt      -0.10000001      14.45000076      15.00999975
Pt       2.74000025      14.43000031      15.13999986
Pt       5.65000010      14.47000027      15.12999963
Pt       1.46000016       2.34000015      15.32999992
Pt       4.26999998       2.34000015      15.23999977
Pt       7.06000042       2.33000016      15.24999952
Pt       9.80000019       2.39000010      15.23999977
Pt      12.54000092       2.19000006      15.15999937
Pt      -1.46000016       2.38000011      15.10999965
Pt       2.92000031       4.81000042      15.28999948
Pt       5.65000010       4.74000025      15.32999992
Pt       8.51000023       4.80000019      15.24999952
Pt      11.35000134       4.74000025      15.19000005
Pt      -2.76999998       4.81000042      15.33999967
Pt       0.08000001       4.82999992      15.00000000
Pt       4.26000023       7.22000074      15.30999946
Pt       7.09000063       7.19000053      15.16999960
Pt       9.90000057       7.26000023      15.26999950
Pt      -4.20000029       7.15000057      15.19999981
Pt      -1.37000012       7.15000057      15.34999943
Pt       1.53000009       7.27000046      15.21999931
Pt       5.66000032       9.65999985      15.36999988
Pt       8.44000053       9.65999985      15.11999941
Pt      -5.49000025       9.63000107      15.32000017
Pt      -2.73000002       9.45000076      15.12999963
Pt      -0.06000000       9.59000015      15.30999946
Pt       2.79999995       9.77000046      15.23000002
Pt       7.01000023      12.15000057      15.32000017
Pt      -7.05000019      12.04000092      15.33999967
Pt      -4.34000015      12.13000107      15.35999918
Pt      -1.46000016      11.93000031      15.11999941
Pt       1.41000009      12.11000061      15.09999990
Pt       4.26000023      12.01000118      15.15999937
