216
Lattice="16.868951504020636 0.0 0.0 -8.43447575201031 14.60894053768958 0.0 0.0 0.0 51.47786768905706" Properties=species:S:1:pos:R:3 pbc="T T T"
Pt       2.12182311       0.48946973      19.85993207
Pt       4.88182310       0.61946979      19.83993543
Pt       7.74182371       0.60946980      19.98993314
Pt      10.71182350       0.62946972      20.00993360
Pt      13.51182274       0.60946980      19.88993466
Pt      16.26182465       0.62946972      19.83993543
Pt       3.63182310       2.97946992      19.83993543
Pt       6.35182289       2.95946970      19.81993497
Pt       9.18182377       2.93946972      20.00993360
Pt      12.02182392       2.99946990      19.85993207
Pt      14.77182392       3.04946985      19.95993436
Pt       0.72182299       3.02946963      19.98993314
Pt       4.98182301       5.40947022      19.89993299
Pt       7.71182350       5.36946979      19.84993375
Pt      10.59182362       5.45946994      19.84993375
Pt      13.42182354       5.52946963      19.87993634
Pt      -0.60817714       5.44947019      20.00993360
Pt       2.10182301       5.37947002      19.87993634
Pt       6.40182308       7.84947028      19.96993649
Pt       9.12182335       7.81947055      19.81993497
Pt      11.99182419       7.80947032      19.70993436
Pt      -2.05817719       7.81947055      19.85993207
Pt       0.76182298       7.84947028      20.02993405
Pt       3.58182315       7.83947005      19.91993344
Pt       7.72182326      10.27947059      19.94993604
Pt      10.68182282      10.21947017      19.84993375
Pt      -3.39817711      10.37947002      19.85993207
Pt      -0.51817699      10.27947059      20.01993573
Pt       2.13182310      10.35947051      19.88993466
Pt       4.85182337      10.31947055      19.83993543
Pt       9.21182350      12.57947078      19.79993451
Pt      -4.73817726      12.73946967      19.87993634
Pt      -2.03817721      12.91946998      19.88993466
Pt       0.68182298      12.78946986      19.92993176
Pt       3.63182310      12.73946967      19.91993344
Pt       6.48182301      12.79947009      19.87993634
Pt       0.69182299       1.20946982      22.31993497
Pt       3.43182306       1.21946981      22.22993482
Pt       6.31182341       1.30946984      22.29993451
Pt       9.20182328       1.21946981      22.28993237
Pt      12.05182270       1.23946991      22.30993665
Pt      14.75182442       1.28946986      22.31993497
Pt       2.22182302       3.67946997      22.23993695
Pt       5.00182299       3.71946969      22.29993451
Pt       7.79182343       3.80946984      22.22993482
Pt      10.51182369       3.70946994      22.32993329
Pt      13.44182305       3.86946979      22.17993558
Pt      -0.74817701       3.63947001      22.38993466
Pt       3.53182320       6.20946994      22.14993299
Pt       6.36182360       6.05947032      22.28993237
Pt       9.15182308       6.17946973      22.21993268
Pt      12.00182251       6.18947043      22.24993527
Pt      -2.07817717       6.21946969      22.19993222
Pt       0.66182297       6.05947032      22.25993360
Pt       4.96182350       8.60946956      22.20993436
Pt       7.76182322       8.57947078      22.25993360
Pt      10.57182316       8.56946960      22.12993253
Pt      -3.55817743       8.56946960      22.12993253
Pt      -0.66817709       8.56946960      22.27993405
Pt       2.10182301       8.54947009      22.27993405
Pt       6.25182299      10.97947040      22.19993222
Pt       9.16182331      10.94946971      22.19993222
Pt      -4.83817716      11.01947036      22.20993436
Pt      -2.10817714      10.99946990      22.12993253
Pt       0.77182297      10.97947040      22.31993497
Pt       3.50182299      10.97947040      22.21993268
Pt       7.76182322      13.46947017      22.23993695
Pt      -6.29817768      13.35947051      22.15993512
Pt      -3.53817745      13.52946963      22.23993695
Pt      -0.60817714      13.37947002      22.40993512
Pt       2.22182302      13.45946994      22.24993527
Pt       5.00182299      13.38947024      22.26993192
Pt      -7.73817726      14.19946971      24.54993451
Pt      -4.91817756      14.24946990      24.46993268
Pt      -2.04817696      14.23947063      24.53993237
Pt       0.71182298      14.12947002      24.60993207
Pt       3.53182320      14.22947040      24.61993421
Pt       6.33182339      14.24946990      24.65993512
Pt       2.18182306       2.11946979      24.45993436
Pt       4.93182329       2.14946976      24.53993237
Pt       7.75182347       2.07946982      24.63993466
Pt      10.51182369       1.89946976      24.63993466
Pt      13.41182331       2.01946988      24.59993375
Pt      -0.68817707       1.99946966      24.60993207
Pt       3.61182312       4.48947015      24.55993665
Pt       6.33182339       4.49946990      24.55993665
Pt       9.19182305       4.50947013      24.55993665
Pt      11.88182358       4.46947017      24.61993421
Pt      -2.14817711       4.42946973      24.58993543
Pt       0.75182299       4.41946998      24.54993451
Pt       4.95182328       6.98947015      24.51993573
Pt       7.75182347       6.86946979      24.52993405
Pt      10.51182369       6.96947017      24.47993482
Pt      -3.58817716       6.93946996      24.46993268
Pt      -0.61817713       6.87947002      24.58993543
Pt       2.17182307       6.84947028      24.51993573
Pt       6.36182360       9.44946971      24.54993451
Pt       9.11182312       9.36947074      24.44993604
Pt      -4.88817688       9.41946998      24.42993558
Pt      -2.10817714       9.25947013      24.46993268
Pt       0.77182297       9.22947040      24.58993543
Pt       3.57182316       9.37947002      24.60993207
Pt       7.71182350      11.85947051      24.59993375
Pt      -6.37817760      11.82947078      24.49993527
Pt      -3.49817701      11.82947078      24.51993573
Pt      -0.72817703      11.71947017      24.58993543
Pt       2.10182301      11.78947082      24.58993543
Pt       4.90182308      11.88947024      24.57993329
Pt       2.12182311       0.38946977      26.80793281
Pt       4.98182301       0.34946975      26.79793270
Pt       7.80182366       0.31946971      26.85793277
Pt      10.46182350       0.33946976      26.96793266
Pt      13.34182362       0.32946971      26.95793267
Pt      16.05182366       0.39946970      26.97793277
Pt       3.49182324       2.74946990      26.82793279
Pt       6.25182299       2.90946975      26.85793277
Pt       9.02182297       2.92946973      26.88793274
Pt      11.90182308       2.78946986      26.90793272
Pt      14.70182423       2.72946968      26.93793269
Pt       0.64182297       2.73946991      26.89793273
Pt       4.82182316       5.29946961      26.89793273
Pt       7.63182310       5.36946979      26.84793266
Pt      10.47182373       5.34946981      26.89793273
Pt      13.22182373       5.20946994      26.85793277
Pt      -0.75817712       5.16946998      26.89793273
Pt       2.19182305       5.17947021      26.81793268
Pt       6.30182318       7.77946963      26.83793278
Pt       9.13182358       7.74947085      26.87793275
Pt      11.89182381       7.72947040      26.82793279
Pt      -2.17817708       7.62947002      26.88793274
Pt       0.76182298       7.58947005      26.90793272
Pt       3.56182317       7.73946967      26.87793275
Pt       7.70182328      10.30947032      26.81793268
Pt      10.55182366      10.12947097      26.76793273
Pt      -3.46817728      10.10946956      26.80793281
Pt      -0.69817706      10.02946963      26.94793268
Pt       2.00182299      10.11946979      26.98793276
Pt       4.87182335      10.14947047      26.79793270
Pt       9.10182289      12.63947024      26.91793271
Pt      -4.95817753      12.55947032      26.68793275
Pt      -2.14817711      12.49947085      26.84793266
Pt       0.57182297      12.47947040      26.96793266
Pt       3.38182310      12.57947078      26.99793275
Pt       6.18182329      12.60946956      26.91793271
Pt       0.56182297       1.16946974      29.20793291
Pt       3.46182303       1.17946973      29.00793310
Pt       6.29182343       1.32946971      29.11793276
Pt       9.06182293       1.14946976      29.15793272
Pt      11.84182362       1.14946976      29.15793272
Pt      14.63182358       1.17946973      29.32793279
Pt       2.04182307       3.70946994      29.07793303
Pt       4.80182318       3.73946967      29.05793281
Pt       7.57182316       3.69946971      29.27793284
Pt      10.36182312       3.54946985      29.24793287
Pt      13.19182400       3.58947005      29.28793283
Pt      -0.79817696       3.57946982      29.27793284
Pt       3.45182304       6.02946963      29.15793272
Pt       6.21182303       6.00947013      29.26793285
Pt       9.00182347       6.09947028      29.33793302
Pt      11.77182297       6.03946986      29.14793297
Pt      -2.20817705       5.93946996      29.24793287
Pt       0.62182298       6.07946982      29.20793291
Pt       4.92182307       8.49946990      29.13793274
Pt       7.62182335       8.48947063      29.17793294
Pt      10.36182312       8.48947063      29.15793272
Pt      -3.69817730       8.50947013      29.13793274
Pt      -0.64817711       8.42947021      29.14793297
Pt       2.00182299       8.42947021      29.25793262
Pt       6.23182348      10.95946994      29.11793276
Pt       9.09182362      10.96947017      29.07793303
Pt      -5.05817743      10.98947063      28.96793290
Pt      -2.29817720      10.89946952      29.08793278
Pt       0.60182298      10.85947051      29.25793262
Pt       3.43182306      10.84946933      29.27793284
Pt       7.59182314      13.42947021      29.27793284
Pt      -6.34817739      13.33947101      29.11793276
Pt      -3.63817688      13.47947040      29.08793278
Pt      -0.82817705      13.33947101      29.26793285
Pt       1.99182300      13.28947082      29.20793291
Pt       4.77182297      13.40947070      29.39793273
Pt      -7.90817734      14.11946979      31.53793331
Pt      -5.11817737      14.28947082      31.45793291
Pt      -2.35817714      14.20947089      31.47793289
Pt       0.58182297      14.21947017      31.57793279
Pt       3.30182318      14.26946940      31.56793257
Pt       6.10182337      14.26946940      31.71793314
Pt       1.99182300       2.05946984      31.31793304
Pt       4.77182297       2.03946986      31.44793316
Pt       7.66182331       1.91946998      31.48793312
Pt      10.35182289       2.08946981      31.60793300
Pt      13.13182358       2.07946982      31.70793291
Pt      -0.89817711       2.03946986      31.59793325
Pt       3.38182310       4.42946973      31.46793314
Pt       6.23182348       4.43946996      31.55793281
Pt       9.04182343       4.45946994      31.56793257
Pt      11.75182347       4.47946992      31.67793318
Pt      -2.19817730       4.41946998      31.54793306
Pt       0.57182297       4.49946990      31.50793310
Pt       4.76182322       6.84947028      31.54793306
Pt       7.67182354       6.87947002      31.65793272
Pt      10.51182369       6.86946979      31.53793331
Pt      -3.65817734       6.84947028      31.47793289
Pt      -0.83817716       6.91947045      31.44793316
Pt       2.03182308       6.89947000      31.47793289
Pt       6.21182303       9.33947005      31.41793295
Pt       8.95182328       9.39947047      31.51793285
Pt      -5.05817743       9.28946986      31.50793310
Pt      -2.35817714       9.31947055      31.47793289
Pt       0.55182297       9.39947047      31.58793302
Pt       3.40182308       9.28946986      31.59793325
Pt       7.51182369      11.82947078      31.50793310
Pt      -6.41817709      11.79947009      31.69793268
Pt      -3.71817728      11.79947009      31.41793295
Pt      -0.90817710      11.77947059      31.39793344
Pt       2.05182306      11.76946940      31.60793300
Pt       4.75182299      11.59947028      31.76793333
