504
Lattice="16.869 0.0 0.0 -8.434499999999996 14.608982536439697 0.0 0.0 0.0 71.47800000000001" Properties=species:S:1:pos:R:3 pbc="T T T"
O      -17.34000015      19.53000069      38.11799891
H      -18.19000053      19.72000122      37.64799769
H      -17.32999992      18.56000137      38.38799937
O      -13.64999962     -12.02000046      37.10799868
H      -14.15000057     -11.52999973      36.37799914
H      -13.36000061     -12.88000107      36.64799960
O        5.55000019     -16.53000069      36.11799891
H        4.79000044     -16.58000183      36.76800044
H        5.19000053     -16.63999939      35.16799815
O       -0.80000007      19.79000092      29.77799876
H       -0.93000001      18.80000114      29.79799921
H       -0.09000000      19.77000046      29.03799708
O       -3.71000028      17.86000061      39.63799937
H       -3.65000010      18.81000137      39.80799944
H       -4.44000053      17.64000130      39.04799921
O       15.85000038     -11.98000050      39.27799876
H       14.87000084     -11.78999996      39.32799799
H       16.14000130     -11.59000015      40.19799883
O      -16.45000076      39.85000229      29.96799738
H      -16.11000061      38.93000031      30.27799876
H        0.02000000      39.70000458      29.01800044
O       -3.08000040      24.17000008      32.91799815
H       -2.84000015      25.09000015      32.93799860
H       -2.68000007      23.75000000      33.71799929
O      -26.26000214       3.93000007      34.95799715
H      -26.80000114       4.66000032      35.41799815
H      -26.43000031       4.08000040      34.00800021
O      -12.74000072       2.92000031      29.91799815
H      -12.87000084       2.55000019      29.03799708
H      -13.51000023       2.60000014      30.43799860
O        8.20000076       0.04000000      38.89799769
H       -7.73000050       0.06000000      39.09799845
H        7.84000015       0.94000006      39.18799860
O       21.33000183      29.95000076      32.49799998
H       21.83000183      29.06999969      32.59799845
H       21.93000031      30.67000198      32.66799815
O      -22.72999954      15.53000069      34.21799929
H      -22.02000046      15.31000042      33.47799761
H      -23.44000053      14.87000084      34.12799723
O       10.94000053       6.83000040      39.79799921
H       11.28000069       5.88000011      39.87799914
H        9.92000008       6.81000042      39.65799792
O      -23.10000229      11.40000153      30.33800013
H      -32.43000412      25.63000107      30.11799891
H      -22.58000183      11.26000023      29.50799830
O       -9.52000046       6.34000015      32.48799784
H       -8.89000034       5.84000063      31.92799838
H       -8.86000061       6.83000040      33.06799967
O       -2.43000007      10.83000088      30.85799868
H       -1.48000002      10.48999977      30.63799937
H       -3.02999997      10.18000031      30.43799860
O      -29.92000198      20.58000183      35.12799914
H      -29.62000084      21.22000122      35.85799868
H      -30.69000244      20.10000038      35.52799876
O      -31.19000244     -14.09000015      35.31799776
H      -30.74000168     -14.99000072      35.29799921
H      -32.15999985     -14.20000076      35.51800044
O       41.16000366      -4.53000021      36.38799937
H       41.95000076      -4.19000053      36.83800013
H       40.77000046      -3.76000023      35.85799868
O      -41.18000031       3.89000034      32.32799799
H      -24.51000214       3.22000027      31.63799937
H      -23.70000076       4.54000044      31.94799883
O      -11.02000046      27.51000214      32.61799891
H      -10.97000027      27.06999969      33.48799975
H      -11.21000099      26.85000229      31.85799868
O       18.15000153      10.76000118      37.68800051
H       18.74000168       9.97000027      37.51799853
H       17.85000038      10.85000038      38.61799891
O        5.03000021      18.23000145      34.09799845
H        4.71000004      19.03000069      34.54799921
H        4.31000042      17.79000092      33.57799990
O      -18.39999962      23.20000076      29.93799860
H      -17.88000107      22.36999893      30.03799708
H      -18.23000145      23.59000206      29.04799921
O       -7.83000040     -21.80000114      34.44799883
H       -7.39000034     -22.36999893      35.09799845
H       -7.22000074     -21.06000137      34.26800044
O       12.15000057      13.03000069      38.05799944
H       12.65999985      12.28000069      37.77799876
H       11.73999977      12.84000015      38.97799952
O      -12.43000031      23.44000053      29.91799815
H      -11.63000107      22.85000038      30.03799708
H      -12.60000134      23.68000031      29.01800044
O        0.84000003      -0.63000000      30.29799921
H        0.78000003      -0.32999998      29.37800105
H        1.29000008      -1.47000003      30.24799616
O       -0.57000005      34.88000107      36.75799830
H        0.29000002      35.06000137      37.16800005
H       -0.88999999      35.54000092      36.04799921
O       -1.14000010       2.96000004      35.80799754
H      -10.48000145      17.63000107      35.44799693
H       -0.79000002       3.83000016      36.09799845
O       20.43000031      -4.01000023      35.74799998
H       21.00000191      -4.53000021      35.11799891
H       20.80000114      -4.40000010      36.55799754
O       17.22000122       3.53000021      29.03799708
H       17.97000122       3.15000033      29.62799723
H       16.38000107       3.18000031      29.51800044
O       18.86000061       6.19999981      37.73799784
H       18.86000061       6.05000019      38.70799906
H       19.49000168       5.57000065      37.25799830
O       -2.44000006     -17.07000160      35.26799853
H       -3.42000008     -17.22000122      35.48799975
H       -2.21000004     -16.28000069      35.84800036
O       27.36000061      -2.72000027      32.87799723
H       26.56999969      -2.14000010      32.90799792
H       27.56000137      -2.79999995      31.91799815
O       -9.69000053      10.63000107      36.01800044
H      -10.13000011      11.47000122      36.28799899
H       -8.77000046      10.83000088      35.56799967
O       18.76000023      -9.05000019      29.22799952
H       18.78000069      -8.07999992      29.37800105
H       19.56000137      -9.48000050      29.51800044
O       11.05000019      19.76000023      33.90799982
H       11.94000053      19.89000130      33.44800074
H       10.60000038      20.61000061      34.00800021
O      -22.27000046      23.24000168      37.06799967
H      -22.74000168      22.41000175      37.26800044
H      -22.43000031      23.44000053      36.13799746
O       -3.31000042      10.19000053      37.75800021
H       -3.09000015      10.07999992      38.77799876
H       -2.43000007       9.98000050      37.28799708
O        6.17000055     -14.66000080      30.01799662
H        6.42000008     -15.09000015      29.13799555
H        5.21000004     -14.68000031      29.99799998
O      -12.21000099      12.63000011      33.34800036
H      -13.11000061      12.59000015      32.88799937
H      -11.44000053      12.68000031      32.71799738
O        9.62000084      17.52000046      33.40799792
H       18.55000114       3.80000019      33.49799807
H       -6.83000040      16.79000092      34.05799754
O        7.95000029       9.73000050      38.72799952
H        7.51000023       9.86000061      37.86799891
H        7.85000038       8.77000046      38.94799883
O       -3.75000024      -4.22000027      29.16799815
H       -4.52000046      -3.74000025      29.51800044
H       -3.98000026      -5.18000031      29.40799982
O       10.24000072       2.14000010      29.91799815
H       10.42000008       2.49000025      29.00799830
H        9.56999969       1.42000008      29.77799876
O       -1.58000004      17.14000130      30.10799677
H       -2.53999996      17.12000084      30.05799754
H       -1.14999998      16.27000046      29.95799906
O      -28.97000122       5.81000042      29.74799998
H      -29.34000206       4.90000010      29.61799891
H      -28.03000259       5.70000076      29.60800059
O      -22.48000145      -5.16000032      34.39799769
H      -21.76000214      -5.12000036      33.76799853
H      -22.93000221      -4.32000017      34.19799693
O        3.89000034      -0.59000003      29.95799906
H        3.49000001       0.00000000      30.66799815
H        3.19000006      -0.48000002      29.26799662
O        4.97000027      -5.48000050      33.65799982
H        5.40999985      -5.05000019      32.83799822
H        4.03999996      -5.45000029      33.42799838
O       -1.26999998       3.13000011      32.45799715
H       -1.98000014       3.51000023      33.00799830
H       -0.51000005       2.86999989      33.00799830
O        7.56000042      20.40000153      32.14799769
H        7.85000038      20.47000122      33.11799891
H        7.46000051      19.44000053      32.02799876
O       19.78000069      45.77999878      32.98799975
H       19.19000244      46.54000092      32.92800028
H       19.68000031      45.23000336      33.77799876
O       16.63999939      -7.51000023      39.68799860
H       16.19000053      -8.35000038      39.35799868
H       16.28000069      -7.30999994      40.59799845
O       -6.56000042       7.86000013      30.83799822
H       -6.22000027       7.15000057      31.40799982
H        2.66000009      -6.44000053      30.33800013
O       -7.33000040      11.05000019      34.81799776
H       -6.46000004      10.94000053      35.31799776
H       -7.47000027      11.97000027      34.60799868
O      -18.73000145       2.76999998      29.96799738
H      -18.78000069       3.00000000      30.95799906
H      -18.89000130       1.76999998      29.95799906
O        3.44000006      14.77000141      30.55800135
H        3.11000013      15.45000076      29.98799784
H       11.67000008       0.37000000      31.41799815
O       -5.32000017       6.02000046      32.47799952
H       -4.98000050       6.31000042      33.37799723
H       -4.69000006       5.36999989      32.17799838
O        7.59000063      15.05000114      36.64799960
H        6.65000010      14.68000031      36.34799845
H        7.60000038      15.98000050      36.29799921
O       16.88000107      13.86000061      32.84799845
H       15.94000053      13.48000050      32.86799891
H       16.89000130      14.51000118      33.55799944
O        4.09000015       8.33000088      30.81799967
H        4.48000002       7.53000021      30.46799738
H        4.56000042       8.61000061      31.64799960
O       -6.99000072      -6.64000034      30.78799899
H       -7.14000034      -6.65000010      31.77799876
H       -5.95000029      -6.41000032      30.79799921
O       -1.45000005      -0.18000001      39.30799944
H       -1.24000001       0.08000001      38.40799792
H       -0.59000003      -0.06000000      39.81799776
O       -1.76000011      14.36000061      36.58799822
H       -1.36000013      14.31000137      37.48799784
H       -2.56000018      14.89000130      36.62799723
O       -6.89000034      44.10000229      37.97799761
H       -6.23000050      43.37000275      37.76799853
H       -7.67000008      43.95000076      37.35800059
O       -2.09000015      52.08000183      35.06799967
H       -1.17000008      51.81000137      35.06799967
H       -1.91000009      52.98000336      35.58800013
O       -2.00000000       6.96000051      30.04799921
H       -9.88000011      21.29000092      30.76799853
H       -1.67000008       6.58000040      29.21799738
O       -5.78000021      -0.10000001      39.40799982
H       -5.11000061       0.55000001      39.64799769
H       -5.69000006      -0.69999999      40.20799906
O        9.77000046      34.50000000      35.88799937
H        9.08000088      34.06999969      35.39799960
H        9.45000076      34.28000259      36.75799830
O      -35.29000092      27.50000191      32.05799754
H      -35.09000015      26.68000221      31.55799754
H      -35.31000137      28.22000122      31.37799914
O       -2.05000019       5.49000025      38.91799815
H       -1.58000004       5.71000051      38.05799944
H       -1.41000009       4.91000032      39.35799868
O        4.87000036       1.87000012      36.42799838
H        4.44000053       1.82000017      35.56799967
H        5.59000015       2.36000013      35.96799738
O      -16.94000053      15.72000027      35.04799921
H      -17.26000023      16.60000038      34.99799998
H      -17.39000130      15.25000095      35.73799784
O       12.79000092     -24.55000114      30.17799647
H       13.30000019     -23.73000145      30.23799784
H       13.48000050     -25.26000023      29.95799906
O        2.44000006      -5.03999996      33.07799799
H        2.00000000      -5.40000010      32.26800044
H        1.87000012      -4.41000032      33.62799914
O       -6.84000015      16.62000084      30.93799860
H       -7.02000046      15.72000027      30.71799929
H       -7.01000023      16.84000206      31.94799883
O       21.56000137       5.40999985      32.55799754
H       21.66000175       5.58000040      31.55799754
H       22.47000122       5.61000061      32.92800028
O       39.80000305      -1.53000009      29.20799906
H       39.87000275      -2.49000025      29.59799845
H       38.99000168      -1.03000009      29.37800105
O       -7.97000027      13.53000069      34.05799754
H       -8.40999985      14.18000126      34.62799723
H       -8.48000050      13.48000050      33.20799906
O      -12.92000008      18.70000076      39.14799960
H      -12.02000046      19.01000214      38.88799937
H      -13.26000118      18.11000061      38.40799792
O        5.91000032       5.82999992      36.61799891
H       -2.56999993      21.38000107      36.31799967
H        5.10000038       5.36999989      36.49799807
O      -21.13000107       7.41000080      37.42800028
H      -21.93000031       7.23000050      37.95799906
H      -20.88000107       8.31000042      37.71799738
O        8.18000031       0.21000001      30.12800105
H        7.50000048      -0.42000002      29.87799723
H        8.42000103      -0.09000000      31.08800013
O      -15.02000046       5.68000031      29.34799845
H      -15.23000145       6.57000017      29.74799998
H      -15.75000000       5.07999992      29.60800059
O       -8.92000008      11.00000000      30.19800074
H       -9.13000011      10.07000065      30.51799662
H       -9.25000095      11.11000061      29.27799876
O      -13.25000000      33.70000076      36.17800028
H      -13.84000015      33.99000168      35.34799845
H      -13.66000080      32.89000320      36.62799723
O       12.74000072      22.88000107      39.76800044
H       11.95000076      22.52000046      40.19799883
H       12.52000046      23.05999947      38.84799845
O       14.55000019      17.65000153      32.69799883
H       15.01000023      17.63000107      31.75799830
H       13.88000011      18.35000038      32.53799899
O        2.46000004       2.85000038      38.21799929
H        2.20000005       1.89000010      38.09799845
H        1.62000000       3.18000031      38.59799845
O       -5.29000044      27.24000168      37.18799860
H       -5.99000025      26.51000023      37.31799776
H       -5.59999990      27.83000183      37.90799792
O       11.12000084      -2.74000025      30.11799891
H       -5.77000046      -1.76000011      30.14799769
H       10.17000103      -3.04000020      29.86799891
O      -15.74000168       7.39000034      33.66799815
H      -16.44000053       7.65000057      34.25799830
H      -14.98000050       7.92000055      33.99799807
O       -1.26999998       7.68000031      34.81799776
H       -2.14000010       7.80000019      34.37799914
H       -1.28000009       8.46000004      35.42800028
Pt       1.62000000       0.63000000      27.10800059
Pt       4.46000004       0.77000010      27.06799586
Pt       7.26000023       0.76000005      26.84799845
Pt      10.14000034       0.54000002      26.85799677
Pt      12.87000084       0.67000002      26.87800105
Pt      15.71000099       0.72000003      26.90799982
Pt       3.21000004       3.17000008      26.88799937
Pt       5.88000011       3.18000031      26.81799967
Pt       8.65000057       3.12000012      26.78799708
Pt      11.51000023       2.96000004      26.78799708
Pt      14.22000027       3.08000040      26.98799784
Pt       0.31000000       3.23000002      26.89799769
Pt       4.55000019       5.65000010      26.92799647
Pt       7.30999994       5.55000019      26.92799647
Pt      10.18000031       5.43000031      26.87800105
Pt      12.86000061       5.48000050      26.87800105
Pt      -1.10000002       5.62000036      26.93799860
Pt       1.79000008       5.66000032      26.96799738
Pt       5.99000025       7.90999985      26.91799815
Pt       8.77000046       8.01000023      26.97799952
Pt      11.62000084       7.95000029      26.89799769
Pt      -2.45000005       8.10000038      26.78799708
Pt       0.39000002       8.07999992      26.85799677
Pt       3.18000031       8.11000061      26.86799891
Pt       7.34000015      10.43000126      26.96799738
Pt      10.18000031      10.43000126      26.87800105
Pt      -3.75000024      10.48000145      26.96799738
Pt      -1.00000000      10.44000053      26.82799799
Pt       1.72000003      10.44000053      26.85799677
Pt       4.64000034      10.55000114      26.92799647
Pt       8.77000046      12.85000038      26.86799891
Pt      -5.32000017      12.80000114      27.05799754
Pt      -2.59000015      12.98000145      26.98799784
Pt       0.30000001      12.83000088      26.86799891
Pt       3.17000008      12.88000107      26.99799616
Pt       5.96000004      12.98000145      26.88799937
Pt       0.19000001       1.63000000      24.58800013
Pt       2.98000002       1.54000020      24.69799693
Pt       5.72000027       1.66000009      24.64799769
Pt       8.64000034       1.48000002      24.43799860
Pt      11.47999954       1.46000016      24.44800074
Pt      14.15999985       1.48000002      24.51800044
Pt       1.66000009       3.94000030      24.59799845
Pt       4.40000010       4.10000038      24.50799830
Pt       7.14000034       3.98000026      24.52799876
Pt      10.06000042       3.92000008      24.51800044
Pt      12.75000095       3.89000034      24.49799616
Pt      -1.21000004       3.94000030      24.54799921
Pt       2.98000002       6.48000002      24.54799921
Pt       5.77000046       6.50000048      24.55799754
Pt       8.59000015       6.36000061      24.63799937
Pt      11.46000004       6.38000011      24.61799891
Pt      -2.56999993       6.43000031      24.50799830
Pt       0.28000000       6.34000015      24.57799799
Pt       4.48000002       8.86999989      24.59799845
Pt       7.17000008       8.85000038      24.59799845
Pt      10.07000065       8.82999992      24.61799891
Pt      -4.01000023       8.89000034      24.59799845
Pt      -1.14000010       8.82999992      24.49799616
Pt       1.70000005       8.86999989      24.53800089
Pt       5.90000057      11.26000023      24.50799830
Pt       8.66000080      11.35000134      24.57799799
Pt      -5.42000055      11.32999992      24.51800044
Pt      -2.60000014      11.34000015      24.64799769
Pt       0.18000001      11.29000092      24.46799738
Pt       3.00000000      11.29000092      24.50799830
Pt       7.35000038      13.64000130      24.55799754
Pt      -6.64000034      13.75000095      24.68799860
Pt      -3.94000030      13.78000069      24.64799769
Pt      -1.24000001      13.75000095      24.59799845
Pt       1.54999995      13.69000053      24.57799799
Pt       4.48000002      13.64999962      24.57799799
Pt      -8.24000072      14.56999969      22.30799754
Pt      -5.43000031      14.51000118      22.36799891
Pt      -2.58000016      14.43000031      22.30799754
Pt       0.15000001      14.40000057      22.21799738
Pt       3.02000022      14.44000149      22.25799830
Pt       5.81000042      14.56999969      22.17799647
Pt       1.63000000       2.40000010      22.32799799
Pt       4.45000029       2.44000006      22.30799754
Pt       7.23000050       2.28000021      22.12800105
Pt      10.04000092       2.18000007      22.18799860
Pt      12.92000008       2.30999994      22.10799677
Pt      -1.24000001       2.32000017      22.24799616
Pt       3.08000040       4.87000036      22.22799952
Pt       5.78000021       4.79000044      22.21799738
Pt       8.72000027       4.81000042      22.16799815
Pt      11.37000084       4.77000046      22.16799815
Pt      -2.63999987       4.78000021      22.22799952
Pt       0.24000001       4.78000021      22.25799830
Pt       4.36000013       7.30000019      22.22799952
Pt       7.27000046       7.19000053      22.21799738
Pt       9.99000072       7.34000015      22.33800013
Pt      -4.06000042       7.18000031      22.25799830
Pt      -1.16000009       7.09000063      22.20799906
Pt       1.63000000       7.19000053      22.27799876
Pt       5.79000044       9.73000050      22.23799784
Pt       8.56000042       9.68000031      22.38799937
Pt      -5.40999985       9.64000034      22.41799815
Pt      -2.63000011       9.60000038      22.32799799
Pt       0.25999999       9.60000038      22.26800044
Pt       3.00000000       9.67000103      22.23799784
Pt       7.18000031      12.14000130      22.21799738
Pt      -6.91000032      12.10000038      22.29799921
Pt      -4.05000019      12.06000137      22.31799586
Pt      -1.23000002      11.98999977      22.25799830
Pt       1.54000020      12.11000061      22.14799769
Pt       4.28999996      12.13000107      22.25799830
Pt       1.62000000       0.74000001      20.04000008
Pt       4.49000025       0.65999997      20.16000008
Pt       7.16000032       0.64000005      19.92000007
Pt       9.90000057       0.64000005      19.86000013
Pt      12.75000095       0.68000007      19.78000009
Pt      15.55000114       0.74000001      19.90000009
Pt       3.06000018       3.04000020      19.98000002
Pt       5.81000042       3.17000008      19.83000004
Pt       8.57000065       3.17000008      19.89000010
Pt      11.32999992       3.02999997      19.87000012
Pt      14.22000027       3.08000040      19.85000014
Pt       0.18000001       3.12000012      19.93000006
Pt       4.39000034       5.62000036      19.91000008
Pt       7.14000034       5.69000006      19.90000009
Pt       9.90000057       5.69000006      19.92000007
Pt      12.75000095       5.50000000      19.98000002
Pt      -1.13000011       5.51000023      19.91000008
Pt       1.70000005       5.47000027      19.94000005
Pt       5.77000046       8.07999992      19.91000008
Pt       8.60000038       8.07999992      19.95000004
Pt      11.44000053       8.01000023      19.95000004
Pt      -2.63999987       7.90999985      19.94000005
Pt       0.21000001       7.90000010      19.92000007
Pt       2.94000006       8.03000069      19.90000009
Pt       7.18000031      10.52000046      20.01000011
Pt       9.97000027      10.43000126      20.09000003
Pt      -4.05000019      10.40999985      20.08000004
Pt      -1.22000003      10.32000065      19.89000010
Pt       1.46000016      10.44000053      19.83000004
Pt       4.33000040      10.42000008      19.93000006
Pt       8.56000042      12.97000027      20.02000010
Pt      -5.52000046      12.86000061      20.19000005
Pt      -2.62000036      12.71000004      19.91000008
Pt       0.04000000      12.72000122      19.89000010
Pt       2.83000016      12.83000088      19.77000010
Pt       5.78000021      12.90999985      19.85000014
Pt       0.11000001       1.60000014      17.67999982
Pt       2.99000025       1.61000013      17.76999998
Pt       5.75000048       1.54999995      17.58999991
Pt       8.50000000       1.47000003      17.55999994
Pt      11.14000130       1.48000002      17.58999991
Pt      13.98000145       1.54999995      17.49999976
Pt       1.54999995       3.91000032      17.65999984
Pt       4.22000027       4.03000021      17.46000003
Pt       7.13000059       4.01999998      17.55000019
Pt       9.84000015       4.09000015      17.49999976
Pt      12.54000092       3.90000010      17.55000019
Pt      -1.45000005       3.89000034      17.65000009
Pt       2.93000007       6.36000061      17.48000002
Pt       5.64000034       6.51000023      17.62999987
Pt       8.47000027       6.48000002      17.55999994
Pt      11.30000019       6.39000034      17.42000007
Pt      -2.69000030       6.32000017      17.72999978
Pt       0.15000001       6.31000042      17.69999981
Pt       4.23000002       8.84000015      17.55000019
Pt       7.03000021       8.95000076      17.71000003
Pt       9.89000034       8.96000004      17.72000003
Pt      -4.07000017       8.78000069      17.69999981
Pt      -1.26999998       8.82000065      17.69999981
Pt       1.44000006       8.79000092      17.49999976
Pt       5.67000008      11.29000092      17.67999982
Pt       8.57999992      11.32999992      17.65000009
Pt      -5.49000025      11.34000015      17.80999994
Pt      -2.67000008      11.29000092      17.69000005
Pt       0.13000000      11.14000130      17.44999981
Pt       2.85000038      11.19999981      17.60999989
Pt       7.14000034      13.74000072      17.69999981
Pt      -6.95000076      13.79000092      17.76999998
Pt      -4.19000053      13.77000046      17.69000005
Pt      -1.36000013      13.70000076      17.55000019
Pt       1.43000007      13.59000111      17.59999990
Pt       4.31000042      13.75000095      17.53999996
Pt      -8.52000046      14.64000130      15.46000003
Pt      -5.68000031      14.68000031      15.33999967
Pt      -2.90000010      14.59000111      15.24000024
Pt      -0.21000001      14.64000130      15.11999988
Pt       2.73000002      14.48000050      15.28000021
Pt       5.55000019      14.46000099      15.12999963
Pt       1.35000002       2.39000010      15.32999992
Pt       4.15000010       2.48000002      15.23000002
Pt       6.94000006       2.42000008      15.28999996
Pt       9.77000046       2.45000005      15.19000005
Pt      12.57000065       2.30999994      15.25000000
Pt      -1.46000016       2.35000014      15.23000002
Pt       2.76000023       4.79000044      15.00000000
Pt       5.51000023       5.02000046      15.11000013
Pt       8.28000069       4.88000011      15.19000005
Pt      11.19000053       4.68000031      15.01999998
Pt      -2.88000011       4.70000029      15.37000036
Pt      -0.12000000       4.78000021      15.30999994
Pt       4.03000021       7.27000046      15.01999998
Pt       6.87000036       7.29000044      15.28999996
Pt       9.72000027       7.18000031      15.24000024
Pt      -4.18000031       7.18000031      15.15999984
Pt      -1.51000011       7.19000053      15.30999994
Pt       1.35000002       7.28000069      15.24000024
Pt       5.44000053       9.68000031      15.32999992
Pt       8.24000072       9.65000057      15.34999990
Pt      -5.59999990       9.80000019      15.44000005
Pt      -2.94000006       9.72000027      15.48999977
Pt      -0.25000000       9.67000103      15.03999948
Pt       2.67000008       9.60000038      15.20999956
Pt       6.94000006      12.21000099      15.44999981
Pt      -6.99000072      12.14000130      15.40999937
Pt      -4.25000000      12.17000008      15.48000002
Pt      -1.47000003      12.24000072      15.11000013
Pt       1.30000007      12.14000130      15.21999979
Pt       4.01999998      12.19000053      15.28000021
